                                  MODFLOW-NWT-SWR1 
      U.S. GEOLOGICAL SURVEY MODULAR FINITE-DIFFERENCE GROUNDWATER-FLOW MODEL
                            VERSION 1.0.9 07/01/2014
                    BASED ON MODFLOW-2005 VERSION 1.11.00 08/30/2013

 LIST FILE: flopy_model.list
                         UNIT    2

 OPENING flopy_model.nwt
 FILE TYPE:NWT   UNIT   32   STATUS:OLD    
 FORMAT:FORMATTED              ACCESS:SEQUENTIAL          

 OPENING flopy_model.dis
 FILE TYPE:DIS   UNIT   11   STATUS:OLD    
 FORMAT:FORMATTED              ACCESS:SEQUENTIAL          

 OPENING flopy_model.bas
 FILE TYPE:BAS6   UNIT   13   STATUS:OLD    
 FORMAT:FORMATTED              ACCESS:SEQUENTIAL          

 OPENING flopy_model.upw
 FILE TYPE:UPW   UNIT   31   STATUS:OLD    
 FORMAT:FORMATTED              ACCESS:SEQUENTIAL          

 OPENING flopy_model.wel
 FILE TYPE:WEL   UNIT   20   STATUS:OLD    
 FORMAT:FORMATTED              ACCESS:SEQUENTIAL          

 OPENING flopy_model.riv
 FILE TYPE:RIV   UNIT   18   STATUS:OLD    
 FORMAT:FORMATTED              ACCESS:SEQUENTIAL          

 OPENING flopy_model.rch
 FILE TYPE:RCH   UNIT   19   STATUS:OLD    
 FORMAT:FORMATTED              ACCESS:SEQUENTIAL          

 OPENING flopy_model.oc
 FILE TYPE:OC   UNIT   14   STATUS:OLD    
 FORMAT:FORMATTED              ACCESS:SEQUENTIAL          

 OPENING flopy_model.hds
 FILE TYPE:DATA(BINARY)   UNIT   51   STATUS:REPLACE
 FORMAT:UNFORMATTED            ACCESS:STREAM              

 OPENING flopy_model.ddn
 FILE TYPE:DATA(BINARY)   UNIT   52   STATUS:REPLACE
 FORMAT:UNFORMATTED            ACCESS:STREAM              

 OPENING flopy_model.cbc
 FILE TYPE:DATA(BINARY)   UNIT   53   STATUS:REPLACE
 FORMAT:UNFORMATTED            ACCESS:STREAM              

 BAS -- BASIC PACKAGE, VERSION 7, 5/2/2005 INPUT READ FROM UNIT   13

 MODFLOW was compiled using mixed precision
 Precision of REAL variables:           6
 Precision of DOUBLE PRECISION variables:          15

 DISCRETIZATION INPUT DATA READ FROM UNIT   11
 # Discretization file for MODFLOW, generated by Flopy.
    1 LAYERS        10 ROWS        20 COLUMNS
    3 STRESS PERIOD(S) IN SIMULATION
 MODEL TIME UNIT IS DAYS
 MODEL LENGTH UNIT IS METERS
  Confining bed flag for each layer:
   0

                     DELR =   2857.99    

                     DELC =   2616.01    

 TOP ELEVATION OF LAYER 1 =   0.00000    

   MODEL LAYER BOTTOM EL. =  -50.0000     FOR LAYER   1


 STRESS PERIOD     LENGTH       TIME STEPS     MULTIPLIER FOR DELT    SS FLAG
 ----------------------------------------------------------------------------
        1         1.000000          1                    1.000         SS
        2         100.0000        100                    1.000         TR
        3         100.0000        100                    1.000         TR

 COMBINED STEADY-STATE AND TRANSIENT SIMULATION




 # Basic package file for MODFLOW, generated by Flopy.                           
 THE FREE FORMAT OPTION HAS BEEN SELECTED



                     BOUNDARY ARRAY FOR LAYER   1
 READING ON UNIT   13 WITH FORMAT: (20I10)             

 AQUIFER HEAD WILL BE SET TO   0.0000     AT ALL NO-FLOW NODES (IBOUND=0).



                       INITIAL HEAD FOR LAYER   1
 READING ON UNIT   13 WITH FORMAT: (20G15.6)           
 # Output control package file for MODFLOW, generated by Flopy. Output control by words option

 OUTPUT CONTROL IS SPECIFIED ONLY AT TIME STEPS FOR WHICH OUTPUT IS DESIRED
 HEAD PRINT FORMAT CODE IS   0    DRAWDOWN PRINT FORMAT CODE IS   0
 HEADS WILL BE SAVED ON UNIT   51    DRAWDOWNS WILL BE SAVED ON UNIT   52
 # NWT for MODFLOW-NWT, generated by Flopy.

 NWT1 -- Newton Solver, VERSION 1.0.9, 07/01/2014
         INPUT READ FROM UNIT 32

 COMPLEX OPTION:
 DEFAULT SOLVER INPUT VALUES REFLECT STRONGLY NONLINEAR MODEL
 ***GMRES linear solver will be used***

   CONVERGENCE CRITERION OF   0.100000E-03 FOR HEAD SOLUTION
   AND A TOLERANCE OF   0.500000E+03 FOR FLOW SOLUTION AND 
   A MAXIMUM OF   100 OUTER ITERATIONS. 


   D-B-D REDUCTION FACTOR OF    0.850000E+00 AND 
   A D-B-D INCREASE FACTOR OF    0.100000E-04 AND 
   A D-B-D RELAXATION OF    0.000000E+00 AND 
   A MOMENTUM FACTOR OF    0.100000E+00 .


   BACKTRACKING IS ACTIVE 
   THE MAXIMUM NUMBER OF BACKTRACKS IS    50 AND 
   THE BACKTRACKING TOLERANCE IS    0.110000E+01 AND
   THE BACKTRACKING REDUCTION FACTOR IS    0.700000E+00

 GMRES -- LINEAR SOLUTION BY GMRES PACKAGE 
     adapted for HYDROTHERM by Kipp and others (2008)
     using software originally developed by Saad (1990) 32
     using algorithms described in Saad (2003)

 UPW1 -- UPSTREAM WEIGHTING FLOW PACKAGE, VERSION 1.0.6, 12/05/2012
         INPUT READ FROM UNIT 31

 # UPW for MODFLOW-NWT, generated by Flopy.
 No named parameters

   LAYER FLAGS:
 LAYER       LAYTYP          LAYAVG    CHANI           LAYVKA           LAYWET
 ---------------------------------------------------------------------------
    1             1             1     1.000E+00             1             0

   INTERPRETATION OF LAYER FLAGS:
                        INTERBLOCK     HORIZONTAL    DATA IN
         LAYER TYPE   TRANSMISSIVITY   ANISOTROPY   ARRAY VKA   WETTABILITY
 LAYER   (LAYTYP)        (LAYAVG)      (CHANI)     (LAYVKA)       (LAYWET)
 ---------------------------------------------------------------------------
    1   CONVERTIBLE   LOGARITHMIC     1.000E+00    ANISOTROPY  NON-WETTABLE



              HYD. COND. ALONG ROWS FOR LAYER   1
 READING ON UNIT   31 WITH FORMAT: (20G15.6)           

  HORIZ. TO VERTICAL ANI. =   1.00000     FOR LAYER   1

         SPECIFIC STORAGE =  1.000000E-04 FOR LAYER   1



                     SPECIFIC YIELD FOR LAYER   1
 READING ON UNIT   31 WITH FORMAT: (20G15.6)           

 WEL -- WELL PACKAGE, VERSION 1.0.6, 12/05/2012 INPUT READ FROM UNIT   20
 # Well file for MODFLOW, generated by Flopy.
 No named parameters
 MAXIMUM OF      4 ACTIVE WELLS AT ONE TIME
 No named parameters
  PHIRAMP WILL BE SET TO A DEFAULT VALUE OF 0.05
  WELLS WITH REDUCED PUMPING WILL BE REPORTED TO THE MAIN LISTING FILE


     0 Well parameters

 RIV -- RIVER PACKAGE, VERSION 7, 5/2/2005 INPUT READ FROM UNIT   18
 # RIV for MODFLOW, generated by Flopy.
 No named parameters
 MAXIMUM OF     22 ACTIVE RIVER REACHES AT ONE TIME


     0 River parameters

 RCH -- RECHARGE PACKAGE, VERSION 7, 5/2/2005 INPUT READ FROM UNIT   19
 # RCH for MODFLOW, generated by Flopy.
 No named parameters
 OPTION 3 -- RECHARGE TO HIGHEST ACTIVE NODE IN EACH VERTICAL COLUMN


     0 Recharge parameters
1
                            STRESS PERIOD NO.    1, LENGTH =   1.000000    
                            -----------------------------------------------

                              NUMBER OF TIME STEPS =     1

                               MULTIPLIER FOR DELT =     1.000

                            INITIAL TIME STEP SIZE =   1.000000    

 WELL NO.  LAYER   ROW   COL   STRESS RATE         
 --------------------------------------------------
      1      1      9     11      -50.24    
      2      1     10     17      -50.24    
      3      1      3     16      -50.24    
      4      1      2      7      -50.24    

      4 WELLS

 REACH NO.  LAYER   ROW   COL     STAGE      CONDUCTANCE     BOTTOM EL.         
 -------------------------------------------------------------------------------
      1      1      1     14       7.313          0.1364E+05       5.000    
      2      1      2     14       7.313          0.1356E+05       5.000    
      3      1      3     14       7.313          0.1211E+05       5.000    
      4      1      4      6       7.313          0.1092E+05       5.000    
      5      1      4      7       7.313          0.1135E+05       5.000    
      6      1      4      8       7.313          0.1182E+05       5.000    
      7      1      4      9       7.313          0.1307E+05       5.000    
      8      1      4     10       7.313          0.1202E+05       5.000    
      9      1      4     11       7.313          0.1073E+05       5.000    
     10      1      4     12       7.313           5202.           5.000    
     11      1      4     14       7.313          0.1496E+05       5.000    
     12      1      5      3       7.313           689.5           5.000    
     13      1      5      4       7.313           2047.           5.000    
     14      1      5      5       7.313          0.1346E+05       5.000    
     15      1      5      6       7.313           5948.           5.000    
     16      1      5     12       7.313           8376.           5.000    
     17      1      5     13       7.313          0.1677E+05       5.000    
     18      1      5     14       7.313           5193.           5.000    
     19      1      6      2       7.313          0.1209E+05       5.000    
     20      1      6      3       7.313          0.1807E+05       5.000    
     21      1      6      4       7.313          0.1027E+05       5.000    
     22      1      6      5       7.313           1327.           5.000    

     22 RIVER REACHES



                           RECHARGE
 READING ON UNIT   19 WITH FORMAT: (20G15.6)           

 SOLVING FOR HEAD 

    ------------------------------------------------
       NWT REQUIRED            8 OUTER ITERATIONS 
       AND A TOTAL OF        116 INNER ITERATIONS.
    ------------------------------------------------

 OUTPUT CONTROL FOR STRESS PERIOD    1   TIME STEP    1
    SAVE HEAD FOR ALL LAYERS
    SAVE DRAWDOWN FOR ALL LAYERS
    SAVE BUDGET
    PRINT HEAD FOR ALL LAYERS
    PRINT BUDGET
1
              HEAD IN LAYER   1 AT END OF TIME STEP   1 IN STRESS PERIOD    1
  ---------------------------------------------------------------------------

            1           2           3           4           5           6           7           8           9          10
           11          12          13          14          15          16          17          18          19          20
 ........................................................................................................................
   1    0.000       0.000       0.000       0.000       0.000       7.293       7.280       7.307       7.329       7.342    
        7.346       7.342       7.328       7.313       7.324       7.335       7.353       7.365       0.000       0.000    
   2    0.000       0.000       0.000       0.000       7.314       7.292       7.236       7.299       7.325       7.338    
        7.342       7.339       7.328       7.313       7.319       7.318       7.347       7.364       0.000       0.000    
   3    0.000       0.000       0.000       7.330       7.321       7.307       7.295       7.309       7.322       7.329    
        7.332       7.331       7.326       7.313       7.311       7.265       7.339       7.366       0.000       0.000    
   4    0.000       0.000       7.328       7.326       7.321       7.313       7.313       7.313       7.313       7.314    
        7.314       7.314       7.320       7.313       7.328       7.330       7.359       7.379       0.000       0.000    
   5    0.000       0.000       7.318       7.315       7.313       7.315       7.334       7.341       7.343       7.341    
        7.334       7.314       7.313       7.316       7.346       7.360       7.380       7.397       7.415       0.000    
   6    0.000       7.314       7.313       7.314       7.323       7.348       7.362       7.367       7.366       7.360    
        7.352       7.346       7.347       7.352       7.366       7.377       7.390       7.403       7.417       0.000    
   7    0.000       7.351       7.356       7.360       7.368       7.379       7.386       7.386       7.380       7.370    
        7.359       7.360       7.365       7.371       7.377       7.382       7.387       7.394       0.000       0.000    
   8    0.000       7.374       7.387       7.393       7.399       7.404       7.405       7.400       7.388       7.368    
        7.344       7.359       7.371       7.377       7.378       7.375       7.371       7.378       0.000       0.000    
   9    0.000       0.000       7.413       7.416       7.418       7.420       7.417       7.408       7.391       7.357    
        7.287       7.347       7.370       7.377       7.372       7.356       7.335       7.358       7.375       7.388    
  10    0.000       0.000       7.425       7.427       7.428       7.428       7.423       7.413       7.395       7.367    
        7.338       7.356       7.372       7.376       7.364       7.330       7.251       7.332       7.369       7.385    

 HEAD WILL BE SAVED ON UNIT   51 AT END OF TIME STEP    1, STRESS PERIOD    1

 DRAWDOWN WILL BE SAVED ON UNIT   52 AT END OF TIME STEP    1, STRESS PERIOD    1
1
  VOLUMETRIC BUDGET FOR ENTIRE MODEL AT END OF TIME STEP    1, STRESS PERIOD   1
  ------------------------------------------------------------------------------

     CUMULATIVE VOLUMES      L**3       RATES FOR THIS TIME STEP      L**3/T
     ------------------                 ------------------------

           IN:                                      IN:
           ---                                      ---
             STORAGE =           0.0000               STORAGE =           0.0000
       CONSTANT HEAD =           0.0000         CONSTANT HEAD =           0.0000
               WELLS =           0.0000                 WELLS =           0.0000
       RIVER LEAKAGE =           0.0000         RIVER LEAKAGE =           0.0000
            RECHARGE =         405.1014              RECHARGE =         405.1014

            TOTAL IN =         405.1014              TOTAL IN =         405.1014

          OUT:                                     OUT:
          ----                                     ----
             STORAGE =           0.0000               STORAGE =           0.0000
       CONSTANT HEAD =           0.0000         CONSTANT HEAD =           0.0000
               WELLS =         200.9482                 WELLS =         200.9482
       RIVER LEAKAGE =         204.2491         RIVER LEAKAGE =         204.2491
            RECHARGE =           0.0000              RECHARGE =           0.0000

           TOTAL OUT =         405.1973             TOTAL OUT =         405.1973

            IN - OUT =      -9.5886E-02              IN - OUT =      -9.5886E-02

 PERCENT DISCREPANCY =          -0.02     PERCENT DISCREPANCY =          -0.02






         TIME SUMMARY AT END OF TIME STEP    1 IN STRESS PERIOD    1
                    SECONDS     MINUTES      HOURS       DAYS        YEARS
                    -----------------------------------------------------------
   TIME STEP LENGTH  86400.      1440.0      24.000      1.0000     2.73785E-03
 STRESS PERIOD TIME  86400.      1440.0      24.000      1.0000     2.73785E-03
         TOTAL TIME  86400.      1440.0      24.000      1.0000     2.73785E-03
1
1
                            STRESS PERIOD NO.    2, LENGTH =   100.0000    
                            -----------------------------------------------

                              NUMBER OF TIME STEPS =   100

                               MULTIPLIER FOR DELT =     1.000

                            INITIAL TIME STEP SIZE =   1.000000    

 WELL NO.  LAYER   ROW   COL   STRESS RATE         
 --------------------------------------------------
      1      1      9     11      -49.62    
      2      1     10     17      -49.62    
      3      1      3     16      -49.62    
      4      1      2      7      -49.62    

      4 WELLS

 REACH NO.  LAYER   ROW   COL     STAGE      CONDUCTANCE     BOTTOM EL.         
 -------------------------------------------------------------------------------
      1      1      1     14       8.386          0.1364E+05       5.000    
      2      1      2     14       8.386          0.1356E+05       5.000    
      3      1      3     14       8.386          0.1211E+05       5.000    
      4      1      4      6       8.386          0.1092E+05       5.000    
      5      1      4      7       8.386          0.1135E+05       5.000    
      6      1      4      8       8.386          0.1182E+05       5.000    
      7      1      4      9       8.386          0.1307E+05       5.000    
      8      1      4     10       8.386          0.1202E+05       5.000    
      9      1      4     11       8.386          0.1073E+05       5.000    
     10      1      4     12       8.386           5202.           5.000    
     11      1      4     14       8.386          0.1496E+05       5.000    
     12      1      5      3       8.386           689.5           5.000    
     13      1      5      4       8.386           2047.           5.000    
     14      1      5      5       8.386          0.1346E+05       5.000    
     15      1      5      6       8.386           5948.           5.000    
     16      1      5     12       8.386           8376.           5.000    
     17      1      5     13       8.386          0.1677E+05       5.000    
     18      1      5     14       8.386           5193.           5.000    
     19      1      6      2       8.386          0.1209E+05       5.000    
     20      1      6      3       8.386          0.1807E+05       5.000    
     21      1      6      4       8.386          0.1027E+05       5.000    
     22      1      6      5       8.386           1327.           5.000    

     22 RIVER REACHES



                           RECHARGE
 READING ON UNIT   19 WITH FORMAT: (20G15.6)           

 SOLVING FOR HEAD 

    ------------------------------------------------
       NWT REQUIRED            4 OUTER ITERATIONS 
       AND A TOTAL OF          6 INNER ITERATIONS.
    ------------------------------------------------

 OUTPUT CONTROL FOR STRESS PERIOD    2   TIME STEP    1
    SAVE HEAD FOR ALL LAYERS
    SAVE DRAWDOWN FOR ALL LAYERS
    SAVE BUDGET
    PRINT HEAD FOR ALL LAYERS
    PRINT BUDGET
1
              HEAD IN LAYER   1 AT END OF TIME STEP   1 IN STRESS PERIOD    2
  ---------------------------------------------------------------------------

            1           2           3           4           5           6           7           8           9          10
           11          12          13          14          15          16          17          18          19          20
 ........................................................................................................................
   1    0.000       0.000       0.000       0.000       0.000       7.293       7.280       7.307       7.329       7.342    
        7.346       7.342       7.331       7.597       7.326       7.335       7.353       7.365       0.000       0.000    
   2    0.000       0.000       0.000       0.000       7.314       7.292       7.236       7.299       7.325       7.338    
        7.342       7.339       7.330       7.596       7.321       7.318       7.347       7.364       0.000       0.000    
   3    0.000       0.000       0.000       7.330       7.321       7.309       7.298       7.311       7.324       7.331    
        7.333       7.332       7.328       7.574       7.312       7.265       7.339       7.366       0.000       0.000    
   4    0.000       0.000       7.328       7.327       7.324       7.553       7.559       7.568       7.589       7.573    
        7.551       7.445       7.324       7.617       7.330       7.330       7.359       7.379       0.000       0.000    
   5    0.000       0.000       7.339       7.372       7.594       7.462       7.336       7.343       7.345       7.342    
        7.336       7.509       7.642       7.447       7.347       7.360       7.380       7.397       7.415       0.000    
   6    0.000       7.575       7.660       7.543       7.361       7.349       7.362       7.367       7.366       7.360    
        7.352       7.347       7.349       7.353       7.366       7.377       7.390       7.403       7.417       0.000    
   7    0.000       7.353       7.358       7.362       7.368       7.379       7.386       7.386       7.380       7.370    
        7.359       7.360       7.365       7.371       7.377       7.382       7.387       7.394       0.000       0.000    
   8    0.000       7.374       7.387       7.393       7.399       7.404       7.405       7.400       7.388       7.368    
        7.344       7.359       7.371       7.378       7.378       7.375       7.371       7.378       0.000       0.000    
   9    0.000       0.000       7.413       7.416       7.418       7.420       7.417       7.408       7.391       7.357    
        7.287       7.347       7.370       7.377       7.372       7.356       7.335       7.358       7.375       7.388    
  10    0.000       0.000       7.425       7.427       7.428       7.428       7.423       7.413       7.395       7.367    
        7.338       7.356       7.372       7.376       7.364       7.330       7.251       7.332       7.369       7.385    

 HEAD WILL BE SAVED ON UNIT   51 AT END OF TIME STEP    1, STRESS PERIOD    2

 DRAWDOWN WILL BE SAVED ON UNIT   52 AT END OF TIME STEP    1, STRESS PERIOD    2
1
  VOLUMETRIC BUDGET FOR ENTIRE MODEL AT END OF TIME STEP    1, STRESS PERIOD   2
  ------------------------------------------------------------------------------

     CUMULATIVE VOLUMES      L**3       RATES FOR THIS TIME STEP      L**3/T
     ------------------                 ------------------------

           IN:                                      IN:
           ---                                      ---
             STORAGE =           0.0000               STORAGE =           0.0000
       CONSTANT HEAD =           0.0000         CONSTANT HEAD =           0.0000
               WELLS =           0.0000                 WELLS =           0.0000
       RIVER LEAKAGE =      181636.3594         RIVER LEAKAGE =      181636.3594
            RECHARGE =         969.5522              RECHARGE =         564.4509

            TOTAL IN =      182605.9062              TOTAL IN =      182200.8125

          OUT:                                     OUT:
          ----                                     ----
             STORAGE =      182005.3438               STORAGE =      182005.3438
       CONSTANT HEAD =           0.0000         CONSTANT HEAD =           0.0000
               WELLS =         399.4203                 WELLS =         198.4721
       RIVER LEAKAGE =         204.2491         RIVER LEAKAGE =           0.0000
            RECHARGE =           0.0000              RECHARGE =           0.0000

           TOTAL OUT =      182609.0156             TOTAL OUT =      182203.8125

            IN - OUT =          -3.1094              IN - OUT =          -3.0000

 PERCENT DISCREPANCY =          -0.00     PERCENT DISCREPANCY =          -0.00






         TIME SUMMARY AT END OF TIME STEP    1 IN STRESS PERIOD    2
                    SECONDS     MINUTES      HOURS       DAYS        YEARS
                    -----------------------------------------------------------
   TIME STEP LENGTH  86400.      1440.0      24.000      1.0000     2.73785E-03
 STRESS PERIOD TIME  86400.      1440.0      24.000      1.0000     2.73785E-03
         TOTAL TIME 1.72800E+05  2880.0      48.000      2.0000     5.47570E-03
1

 SOLVING FOR HEAD 

    ------------------------------------------------
       NWT REQUIRED            4 OUTER ITERATIONS 
       AND A TOTAL OF          5 INNER ITERATIONS.
    ------------------------------------------------

 OUTPUT CONTROL FOR STRESS PERIOD    2   TIME STEP    2
    SAVE HEAD FOR ALL LAYERS
    SAVE DRAWDOWN FOR ALL LAYERS
    SAVE BUDGET
    PRINT HEAD FOR ALL LAYERS
    PRINT BUDGET
1
              HEAD IN LAYER   1 AT END OF TIME STEP   2 IN STRESS PERIOD    2
  ---------------------------------------------------------------------------

            1           2           3           4           5           6           7           8           9          10
           11          12          13          14          15          16          17          18          19          20
 ........................................................................................................................
   1    0.000       0.000       0.000       0.000       0.000       7.293       7.280       7.307       7.329       7.342    
        7.346       7.342       7.335       7.802       7.331       7.335       7.353       7.366       0.000       0.000    
   2    0.000       0.000       0.000       0.000       7.314       7.292       7.236       7.299       7.326       7.338    
        7.342       7.339       7.334       7.801       7.325       7.318       7.347       7.364       0.000       0.000    
   3    0.000       0.000       0.000       7.330       7.321       7.312       7.302       7.315       7.326       7.334    
        7.336       7.333       7.330       7.770       7.314       7.265       7.339       7.366       0.000       0.000    
   4    0.000       0.000       7.328       7.327       7.329       7.736       7.746       7.760       7.792       7.767    
        7.733       7.559       7.331       7.832       7.332       7.330       7.359       7.379       0.000       0.000    
   5    0.000       0.000       7.361       7.428       7.798       7.588       7.341       7.346       7.348       7.345    
        7.340       7.667       7.867       7.562       7.348       7.360       7.380       7.397       7.415       0.000    
   6    0.000       7.772       7.891       7.721       7.400       7.351       7.362       7.367       7.366       7.360    
        7.353       7.349       7.352       7.355       7.366       7.377       7.390       7.403       7.417       0.000    
   7    0.000       7.355       7.361       7.364       7.369       7.379       7.386       7.386       7.380       7.370    
        7.359       7.360       7.365       7.371       7.377       7.382       7.387       7.394       0.000       0.000    
   8    0.000       7.374       7.387       7.393       7.399       7.404       7.405       7.400       7.388       7.368    
        7.344       7.359       7.371       7.378       7.379       7.375       7.371       7.378       0.000       0.000    
   9    0.000       0.000       7.413       7.416       7.418       7.420       7.417       7.408       7.391       7.358    
        7.287       7.347       7.370       7.377       7.372       7.356       7.335       7.358       7.376       7.388    
  10    0.000       0.000       7.425       7.427       7.428       7.428       7.423       7.413       7.395       7.367    
        7.338       7.356       7.372       7.376       7.364       7.330       7.251       7.332       7.369       7.385    

 HEAD WILL BE SAVED ON UNIT   51 AT END OF TIME STEP    2, STRESS PERIOD    2

 DRAWDOWN WILL BE SAVED ON UNIT   52 AT END OF TIME STEP    2, STRESS PERIOD    2
1
  VOLUMETRIC BUDGET FOR ENTIRE MODEL AT END OF TIME STEP    2, STRESS PERIOD   2
  ------------------------------------------------------------------------------

     CUMULATIVE VOLUMES      L**3       RATES FOR THIS TIME STEP      L**3/T
     ------------------                 ------------------------

           IN:                                      IN:
           ---                                      ---
             STORAGE =           0.0000               STORAGE =           0.0000
       CONSTANT HEAD =           0.0000         CONSTANT HEAD =           0.0000
               WELLS =           0.0000                 WELLS =           0.0000
       RIVER LEAKAGE =      320429.3750         RIVER LEAKAGE =      138793.0156
            RECHARGE =        1534.0032              RECHARGE =         564.4509

            TOTAL IN =      321963.3750              TOTAL IN =      139357.4688

          OUT:                                     OUT:
          ----                                     ----
             STORAGE =      321166.6250               STORAGE =      139161.2656
       CONSTANT HEAD =           0.0000         CONSTANT HEAD =           0.0000
               WELLS =         597.8924                 WELLS =         198.4721
       RIVER LEAKAGE =         204.2491         RIVER LEAKAGE =           0.0000
            RECHARGE =           0.0000              RECHARGE =           0.0000

           TOTAL OUT =      321968.7812             TOTAL OUT =      139359.7344

            IN - OUT =          -5.4062              IN - OUT =          -2.2656

 PERCENT DISCREPANCY =          -0.00     PERCENT DISCREPANCY =          -0.00






         TIME SUMMARY AT END OF TIME STEP    2 IN STRESS PERIOD    2
                    SECONDS     MINUTES      HOURS       DAYS        YEARS
                    -----------------------------------------------------------
   TIME STEP LENGTH  86400.      1440.0      24.000      1.0000     2.73785E-03
 STRESS PERIOD TIME 1.72800E+05  2880.0      48.000      2.0000     5.47570E-03
         TOTAL TIME 2.59200E+05  4320.0      72.000      3.0000     8.21355E-03
1

 SOLVING FOR HEAD 

    ------------------------------------------------
       NWT REQUIRED            4 OUTER ITERATIONS 
       AND A TOTAL OF          5 INNER ITERATIONS.
    ------------------------------------------------

 OUTPUT CONTROL FOR STRESS PERIOD    2   TIME STEP    3
    SAVE HEAD FOR ALL LAYERS
    SAVE DRAWDOWN FOR ALL LAYERS
    SAVE BUDGET
    PRINT HEAD FOR ALL LAYERS
    PRINT BUDGET
1
              HEAD IN LAYER   1 AT END OF TIME STEP   3 IN STRESS PERIOD    2
  ---------------------------------------------------------------------------

            1           2           3           4           5           6           7           8           9          10
           11          12          13          14          15          16          17          18          19          20
 ........................................................................................................................
   1    0.000       0.000       0.000       0.000       0.000       7.293       7.280       7.307       7.329       7.342    
        7.346       7.342       7.341       7.950       7.336       7.335       7.353       7.366       0.000       0.000    
   2    0.000       0.000       0.000       0.000       7.314       7.292       7.237       7.299       7.326       7.338    
        7.342       7.339       7.338       7.950       7.329       7.318       7.347       7.364       0.000       0.000    
   3    0.000       0.000       0.000       7.330       7.321       7.316       7.308       7.320       7.330       7.337    
        7.339       7.335       7.333       7.917       7.317       7.265       7.339       7.366       0.000       0.000    
   4    0.000       0.000       7.329       7.329       7.336       7.877       7.887       7.904       7.940       7.912    
        7.873       7.659       7.339       7.984       7.336       7.330       7.359       7.379       0.000       0.000    
   5    0.000       0.000       7.384       7.480       7.946       7.697       7.348       7.350       7.351       7.348    
        7.345       7.795       8.020       7.663       7.350       7.360       7.380       7.397       7.415       0.000    
   6    0.000       7.920       8.046       7.860       7.438       7.354       7.362       7.367       7.366       7.360    
        7.353       7.352       7.356       7.357       7.366       7.377       7.390       7.403       7.417       0.000    
   7    0.000       7.359       7.365       7.367       7.369       7.380       7.386       7.387       7.381       7.370    
        7.359       7.360       7.365       7.371       7.377       7.382       7.387       7.394       0.000       0.000    
   8    0.000       7.374       7.387       7.393       7.399       7.404       7.405       7.400       7.388       7.368    
        7.344       7.359       7.371       7.378       7.379       7.375       7.371       7.378       0.000       0.000    
   9    0.000       0.000       7.413       7.416       7.418       7.420       7.417       7.408       7.391       7.358    
        7.287       7.347       7.371       7.377       7.372       7.356       7.335       7.358       7.376       7.388    
  10    0.000       0.000       7.426       7.427       7.428       7.428       7.423       7.413       7.395       7.367    
        7.338       7.357       7.372       7.376       7.364       7.330       7.251       7.332       7.369       7.385    

 HEAD WILL BE SAVED ON UNIT   51 AT END OF TIME STEP    3, STRESS PERIOD    2

 DRAWDOWN WILL BE SAVED ON UNIT   52 AT END OF TIME STEP    3, STRESS PERIOD    2
1
  VOLUMETRIC BUDGET FOR ENTIRE MODEL AT END OF TIME STEP    3, STRESS PERIOD   2
  ------------------------------------------------------------------------------

     CUMULATIVE VOLUMES      L**3       RATES FOR THIS TIME STEP      L**3/T
     ------------------                 ------------------------

           IN:                                      IN:
           ---                                      ---
             STORAGE =           0.0000               STORAGE =           0.0000
       CONSTANT HEAD =           0.0000         CONSTANT HEAD =           0.0000
               WELLS =           0.0000                 WELLS =           0.0000
       RIVER LEAKAGE =      427565.8125         RIVER LEAKAGE =      107136.4297
            RECHARGE =        2098.4541              RECHARGE =         564.4509

            TOTAL IN =      429664.2812              TOTAL IN =      107700.8828

          OUT:                                     OUT:
          ----                                     ----
             STORAGE =      428670.7812               STORAGE =      107504.1484
       CONSTANT HEAD =           0.0000         CONSTANT HEAD =           0.0000
               WELLS =         796.3645                 WELLS =         198.4721
       RIVER LEAKAGE =         204.2491         RIVER LEAKAGE =           0.0000
            RECHARGE =           0.0000              RECHARGE =           0.0000

           TOTAL OUT =      429671.4062             TOTAL OUT =      107702.6172

            IN - OUT =          -7.1250              IN - OUT =          -1.7344

 PERCENT DISCREPANCY =          -0.00     PERCENT DISCREPANCY =          -0.00






         TIME SUMMARY AT END OF TIME STEP    3 IN STRESS PERIOD    2
                    SECONDS     MINUTES      HOURS       DAYS        YEARS
                    -----------------------------------------------------------
   TIME STEP LENGTH  86400.      1440.0      24.000      1.0000     2.73785E-03
 STRESS PERIOD TIME 2.59200E+05  4320.0      72.000      3.0000     8.21355E-03
         TOTAL TIME 3.45600E+05  5760.0      96.000      4.0000     1.09514E-02
1

 SOLVING FOR HEAD 

    ------------------------------------------------
       NWT REQUIRED            4 OUTER ITERATIONS 
       AND A TOTAL OF          5 INNER ITERATIONS.
    ------------------------------------------------

 OUTPUT CONTROL FOR STRESS PERIOD    2   TIME STEP    4
    SAVE HEAD FOR ALL LAYERS
    SAVE DRAWDOWN FOR ALL LAYERS
    SAVE BUDGET
    PRINT HEAD FOR ALL LAYERS
    PRINT BUDGET
1
              HEAD IN LAYER   1 AT END OF TIME STEP   4 IN STRESS PERIOD    2
  ---------------------------------------------------------------------------

            1           2           3           4           5           6           7           8           9          10
           11          12          13          14          15          16          17          18          19          20
 ........................................................................................................................
   1    0.000       0.000       0.000       0.000       0.000       7.293       7.280       7.307       7.329       7.342    
        7.346       7.342       7.347       8.057       7.343       7.335       7.353       7.366       0.000       0.000    
   2    0.000       0.000       0.000       0.000       7.314       7.292       7.237       7.300       7.326       7.338    
        7.342       7.339       7.343       8.059       7.334       7.318       7.347       7.364       0.000       0.000    
   3    0.000       0.000       0.000       7.330       7.321       7.321       7.314       7.325       7.334       7.341    
        7.343       7.337       7.336       8.027       7.321       7.265       7.339       7.366       0.000       0.000    
   4    0.000       0.000       7.329       7.330       7.343       7.985       7.994       8.012       8.049       8.022    
        7.981       7.746       7.350       8.092       7.339       7.330       7.359       7.379       0.000       0.000    
   5    0.000       0.000       7.407       7.531       8.054       7.790       7.355       7.355       7.355       7.352    
        7.352       7.899       8.125       7.751       7.352       7.360       7.380       7.397       7.415       0.000    
   6    0.000       8.031       8.150       7.967       7.475       7.357       7.362       7.367       7.366       7.360    
        7.353       7.355       7.360       7.359       7.366       7.377       7.390       7.403       7.417       0.000    
   7    0.000       7.363       7.370       7.371       7.370       7.380       7.386       7.387       7.381       7.370    
        7.359       7.360       7.365       7.371       7.377       7.382       7.387       7.394       0.000       0.000    
   8    0.000       7.374       7.387       7.393       7.399       7.404       7.405       7.400       7.388       7.368    
        7.344       7.359       7.371       7.378       7.379       7.375       7.371       7.378       0.000       0.000    
   9    0.000       0.000       7.413       7.416       7.418       7.420       7.417       7.408       7.391       7.358    
        7.287       7.347       7.371       7.377       7.372       7.356       7.335       7.358       7.376       7.388    
  10    0.000       0.000       7.426       7.427       7.428       7.428       7.423       7.413       7.395       7.367    
        7.338       7.357       7.372       7.376       7.365       7.330       7.251       7.332       7.369       7.385    

 HEAD WILL BE SAVED ON UNIT   51 AT END OF TIME STEP    4, STRESS PERIOD    2

 DRAWDOWN WILL BE SAVED ON UNIT   52 AT END OF TIME STEP    4, STRESS PERIOD    2
1
  VOLUMETRIC BUDGET FOR ENTIRE MODEL AT END OF TIME STEP    4, STRESS PERIOD   2
  ------------------------------------------------------------------------------

     CUMULATIVE VOLUMES      L**3       RATES FOR THIS TIME STEP      L**3/T
     ------------------                 ------------------------

           IN:                                      IN:
           ---                                      ---
             STORAGE =           0.0000               STORAGE =           0.0000
       CONSTANT HEAD =           0.0000         CONSTANT HEAD =           0.0000
               WELLS =           0.0000                 WELLS =           0.0000
       RIVER LEAKAGE =      511211.7500         RIVER LEAKAGE =       83645.9297
            RECHARGE =        2662.9050              RECHARGE =         564.4509

            TOTAL IN =      513874.6562              TOTAL IN =       84210.3828

          OUT:                                     OUT:
          ----                                     ----
             STORAGE =      512684.0312               STORAGE =       84013.2500
       CONSTANT HEAD =           0.0000         CONSTANT HEAD =           0.0000
               WELLS =         994.8366                 WELLS =         198.4721
       RIVER LEAKAGE =         204.2491         RIVER LEAKAGE =           0.0000
            RECHARGE =           0.0000              RECHARGE =           0.0000

           TOTAL OUT =      513883.1250             TOTAL OUT =       84211.7188

            IN - OUT =          -8.4688              IN - OUT =          -1.3359

 PERCENT DISCREPANCY =          -0.00     PERCENT DISCREPANCY =          -0.00






         TIME SUMMARY AT END OF TIME STEP    4 IN STRESS PERIOD    2
                    SECONDS     MINUTES      HOURS       DAYS        YEARS
                    -----------------------------------------------------------
   TIME STEP LENGTH  86400.      1440.0      24.000      1.0000     2.73785E-03
 STRESS PERIOD TIME 3.45600E+05  5760.0      96.000      4.0000     1.09514E-02
         TOTAL TIME 4.32000E+05  7200.0      120.00      5.0000     1.36893E-02
1

 SOLVING FOR HEAD 

    ------------------------------------------------
       NWT REQUIRED            4 OUTER ITERATIONS 
       AND A TOTAL OF          5 INNER ITERATIONS.
    ------------------------------------------------

 OUTPUT CONTROL FOR STRESS PERIOD    2   TIME STEP    5
    SAVE HEAD FOR ALL LAYERS
    SAVE DRAWDOWN FOR ALL LAYERS
    SAVE BUDGET
    PRINT HEAD FOR ALL LAYERS
    PRINT BUDGET
1
              HEAD IN LAYER   1 AT END OF TIME STEP   5 IN STRESS PERIOD    2
  ---------------------------------------------------------------------------

            1           2           3           4           5           6           7           8           9          10
           11          12          13          14          15          16          17          18          19          20
 ........................................................................................................................
   1    0.000       0.000       0.000       0.000       0.000       7.293       7.280       7.307       7.329       7.342    
        7.346       7.342       7.354       8.135       7.350       7.335       7.353       7.366       0.000       0.000    
   2    0.000       0.000       0.000       0.000       7.314       7.293       7.237       7.300       7.326       7.338    
        7.342       7.339       7.349       8.137       7.340       7.318       7.347       7.364       0.000       0.000    
   3    0.000       0.000       0.000       7.330       7.322       7.326       7.322       7.331       7.339       7.345    
        7.347       7.340       7.340       8.110       7.325       7.265       7.339       7.366       0.000       0.000    
   4    0.000       0.000       7.330       7.331       7.352       8.067       8.075       8.093       8.130       8.104    
        8.064       7.821       7.361       8.169       7.343       7.330       7.359       7.379       0.000       0.000    
   5    0.000       0.000       7.429       7.578       8.133       7.869       7.364       7.360       7.360       7.357    
        7.359       7.983       8.198       7.828       7.354       7.360       7.380       7.397       7.415       0.000    
   6    0.000       8.115       8.219       8.051       7.511       7.361       7.362       7.367       7.366       7.360    
        7.353       7.359       7.365       7.362       7.366       7.378       7.390       7.403       7.417       0.000    
   7    0.000       7.368       7.375       7.375       7.371       7.380       7.386       7.387       7.381       7.370    
        7.359       7.360       7.365       7.371       7.377       7.382       7.387       7.394       0.000       0.000    
   8    0.000       7.374       7.387       7.394       7.399       7.404       7.405       7.400       7.388       7.368    
        7.344       7.359       7.371       7.378       7.379       7.375       7.371       7.378       0.000       0.000    
   9    0.000       0.000       7.413       7.416       7.419       7.420       7.417       7.408       7.391       7.358    
        7.287       7.348       7.371       7.378       7.372       7.356       7.335       7.358       7.376       7.388    
  10    0.000       0.000       7.426       7.427       7.428       7.428       7.424       7.413       7.395       7.367    
        7.338       7.357       7.372       7.376       7.365       7.330       7.251       7.332       7.369       7.385    

 HEAD WILL BE SAVED ON UNIT   51 AT END OF TIME STEP    5, STRESS PERIOD    2

 DRAWDOWN WILL BE SAVED ON UNIT   52 AT END OF TIME STEP    5, STRESS PERIOD    2
1
  VOLUMETRIC BUDGET FOR ENTIRE MODEL AT END OF TIME STEP    5, STRESS PERIOD   2
  ------------------------------------------------------------------------------

     CUMULATIVE VOLUMES      L**3       RATES FOR THIS TIME STEP      L**3/T
     ------------------                 ------------------------

           IN:                                      IN:
           ---                                      ---
             STORAGE =           0.0000               STORAGE =           0.0000
       CONSTANT HEAD =           0.0000         CONSTANT HEAD =           0.0000
               WELLS =           0.0000                 WELLS =           0.0000
       RIVER LEAKAGE =      577348.1875         RIVER LEAKAGE =       66136.4141
            RECHARGE =        3227.3560              RECHARGE =         564.4509

            TOTAL IN =      580575.5625              TOTAL IN =       66700.8672

          OUT:                                     OUT:
          ----                                     ----
             STORAGE =      579187.5000               STORAGE =       66503.4453
       CONSTANT HEAD =           0.0000         CONSTANT HEAD =           0.0000
               WELLS =        1193.3087                 WELLS =         198.4721
       RIVER LEAKAGE =         204.2491         RIVER LEAKAGE =           0.0000
            RECHARGE =           0.0000              RECHARGE =           0.0000

           TOTAL OUT =      580585.0625             TOTAL OUT =       66701.9141

            IN - OUT =          -9.5000              IN - OUT =          -1.0469

 PERCENT DISCREPANCY =          -0.00     PERCENT DISCREPANCY =          -0.00






         TIME SUMMARY AT END OF TIME STEP    5 IN STRESS PERIOD    2
                    SECONDS     MINUTES      HOURS       DAYS        YEARS
                    -----------------------------------------------------------
   TIME STEP LENGTH  86400.      1440.0      24.000      1.0000     2.73785E-03
 STRESS PERIOD TIME 4.32000E+05  7200.0      120.00      5.0000     1.36893E-02
         TOTAL TIME 5.18400E+05  8640.0      144.00      6.0000     1.64271E-02
1

 SOLVING FOR HEAD 

    ------------------------------------------------
       NWT REQUIRED            4 OUTER ITERATIONS 
       AND A TOTAL OF          5 INNER ITERATIONS.
    ------------------------------------------------

 OUTPUT CONTROL FOR STRESS PERIOD    2   TIME STEP    6
    SAVE HEAD FOR ALL LAYERS
    SAVE DRAWDOWN FOR ALL LAYERS
    SAVE BUDGET
    PRINT HEAD FOR ALL LAYERS
    PRINT BUDGET
1
              HEAD IN LAYER   1 AT END OF TIME STEP   6 IN STRESS PERIOD    2
  ---------------------------------------------------------------------------

            1           2           3           4           5           6           7           8           9          10
           11          12          13          14          15          16          17          18          19          20
 ........................................................................................................................
   1    0.000       0.000       0.000       0.000       0.000       7.293       7.281       7.307       7.329       7.342    
        7.346       7.343       7.362       8.191       7.357       7.336       7.353       7.366       0.000       0.000    
   2    0.000       0.000       0.000       0.000       7.314       7.293       7.237       7.300       7.326       7.338    
        7.342       7.340       7.355       8.194       7.346       7.319       7.347       7.364       0.000       0.000    
   3    0.000       0.000       0.000       7.330       7.322       7.332       7.330       7.338       7.344       7.350    
        7.351       7.344       7.345       8.172       7.329       7.265       7.339       7.366       0.000       0.000    
   4    0.000       0.000       7.331       7.333       7.361       8.131       8.136       8.155       8.189       8.165    
        8.129       7.887       7.372       8.223       7.347       7.330       7.359       7.379       0.000       0.000    
   5    0.000       0.000       7.451       7.623       8.191       7.937       7.373       7.366       7.365       7.362    
        7.367       8.051       8.247       7.894       7.357       7.361       7.380       7.397       7.415       0.000    
   6    0.000       8.178       8.266       8.116       7.546       7.365       7.363       7.367       7.366       7.361    
        7.353       7.363       7.370       7.365       7.367       7.378       7.390       7.403       7.417       0.000    
   7    0.000       7.373       7.381       7.380       7.373       7.380       7.386       7.387       7.381       7.370    
        7.359       7.360       7.365       7.371       7.377       7.382       7.387       7.394       0.000       0.000    
   8    0.000       7.374       7.388       7.394       7.399       7.404       7.405       7.400       7.388       7.368    
        7.344       7.359       7.371       7.378       7.379       7.375       7.371       7.378       0.000       0.000    
   9    0.000       0.000       7.413       7.416       7.419       7.420       7.417       7.409       7.391       7.358    
        7.287       7.348       7.371       7.378       7.373       7.356       7.335       7.358       7.376       7.388    
  10    0.000       0.000       7.426       7.427       7.428       7.428       7.424       7.413       7.395       7.367    
        7.338       7.357       7.372       7.376       7.365       7.330       7.251       7.332       7.369       7.385    

 HEAD WILL BE SAVED ON UNIT   51 AT END OF TIME STEP    6, STRESS PERIOD    2

 DRAWDOWN WILL BE SAVED ON UNIT   52 AT END OF TIME STEP    6, STRESS PERIOD    2
1
  VOLUMETRIC BUDGET FOR ENTIRE MODEL AT END OF TIME STEP    6, STRESS PERIOD   2
  ------------------------------------------------------------------------------

     CUMULATIVE VOLUMES      L**3       RATES FOR THIS TIME STEP      L**3/T
     ------------------                 ------------------------

           IN:                                      IN:
           ---                                      ---
             STORAGE =           0.0000               STORAGE =           0.0000
       CONSTANT HEAD =           0.0000         CONSTANT HEAD =           0.0000
               WELLS =           0.0000                 WELLS =           0.0000
       RIVER LEAKAGE =      630370.7500         RIVER LEAKAGE =       53022.5430
            RECHARGE =        3791.8069              RECHARGE =         564.4509

            TOTAL IN =      634162.5625              TOTAL IN =       53586.9922

          OUT:                                     OUT:
          ----                                     ----
             STORAGE =      632576.8750               STORAGE =       53389.3555
       CONSTANT HEAD =           0.0000         CONSTANT HEAD =           0.0000
               WELLS =        1391.7809                 WELLS =         198.4721
       RIVER LEAKAGE =         204.2491         RIVER LEAKAGE =           0.0000
            RECHARGE =           0.0000              RECHARGE =           0.0000

           TOTAL OUT =      634172.8750             TOTAL OUT =       53587.8281

            IN - OUT =         -10.3125              IN - OUT =          -0.8359

 PERCENT DISCREPANCY =          -0.00     PERCENT DISCREPANCY =          -0.00






         TIME SUMMARY AT END OF TIME STEP    6 IN STRESS PERIOD    2
                    SECONDS     MINUTES      HOURS       DAYS        YEARS
                    -----------------------------------------------------------
   TIME STEP LENGTH  86400.      1440.0      24.000      1.0000     2.73785E-03
 STRESS PERIOD TIME 5.18400E+05  8640.0      144.00      6.0000     1.64271E-02
         TOTAL TIME 6.04800E+05  10080.      168.00      7.0000     1.91650E-02
1

 SOLVING FOR HEAD 

    ------------------------------------------------
       NWT REQUIRED            4 OUTER ITERATIONS 
       AND A TOTAL OF          5 INNER ITERATIONS.
    ------------------------------------------------

 OUTPUT CONTROL FOR STRESS PERIOD    2   TIME STEP    7
    SAVE HEAD FOR ALL LAYERS
    SAVE DRAWDOWN FOR ALL LAYERS
    SAVE BUDGET
    PRINT HEAD FOR ALL LAYERS
    PRINT BUDGET
1
              HEAD IN LAYER   1 AT END OF TIME STEP   7 IN STRESS PERIOD    2
  ---------------------------------------------------------------------------

            1           2           3           4           5           6           7           8           9          10
           11          12          13          14          15          16          17          18          19          20
 ........................................................................................................................
   1    0.000       0.000       0.000       0.000       0.000       7.293       7.281       7.307       7.329       7.342    
        7.346       7.343       7.370       8.232       7.365       7.336       7.353       7.366       0.000       0.000    
   2    0.000       0.000       0.000       0.000       7.314       7.293       7.238       7.300       7.326       7.339    
        7.342       7.340       7.361       8.236       7.352       7.319       7.347       7.364       0.000       0.000    
   3    0.000       0.000       0.000       7.330       7.322       7.337       7.338       7.344       7.349       7.355    
        7.356       7.347       7.349       8.218       7.333       7.265       7.339       7.366       0.000       0.000    
   4    0.000       0.000       7.332       7.336       7.370       8.179       8.182       8.201       8.232       8.212    
        8.178       7.945       7.384       8.262       7.352       7.330       7.359       7.379       0.000       0.000    
   5    0.000       0.000       7.473       7.666       8.233       7.995       7.383       7.372       7.370       7.367    
        7.375       8.106       8.281       7.952       7.360       7.361       7.380       7.397       7.415       0.000    
   6    0.000       8.226       8.298       8.166       7.579       7.370       7.363       7.368       7.366       7.361    
        7.354       7.367       7.376       7.369       7.367       7.378       7.390       7.403       7.417       0.000    
   7    0.000       7.378       7.386       7.385       7.374       7.380       7.386       7.387       7.381       7.370    
        7.359       7.360       7.366       7.371       7.377       7.382       7.387       7.394       0.000       0.000    
   8    0.000       7.374       7.388       7.394       7.399       7.404       7.405       7.400       7.388       7.368    
        7.344       7.359       7.371       7.378       7.379       7.375       7.371       7.378       0.000       0.000    
   9    0.000       0.000       7.413       7.416       7.419       7.420       7.417       7.409       7.391       7.358    
        7.287       7.348       7.371       7.378       7.373       7.356       7.335       7.358       7.376       7.388    
  10    0.000       0.000       7.426       7.427       7.428       7.428       7.424       7.413       7.395       7.367    
        7.338       7.357       7.372       7.376       7.365       7.330       7.251       7.332       7.369       7.385    

 HEAD WILL BE SAVED ON UNIT   51 AT END OF TIME STEP    7, STRESS PERIOD    2

 DRAWDOWN WILL BE SAVED ON UNIT   52 AT END OF TIME STEP    7, STRESS PERIOD    2
1
  VOLUMETRIC BUDGET FOR ENTIRE MODEL AT END OF TIME STEP    7, STRESS PERIOD   2
  ------------------------------------------------------------------------------

     CUMULATIVE VOLUMES      L**3       RATES FOR THIS TIME STEP      L**3/T
     ------------------                 ------------------------

           IN:                                      IN:
           ---                                      ---
             STORAGE =           0.0000               STORAGE =           0.0000
       CONSTANT HEAD =           0.0000         CONSTANT HEAD =           0.0000
               WELLS =           0.0000                 WELLS =           0.0000
       RIVER LEAKAGE =      673521.3750         RIVER LEAKAGE =       43150.6055
            RECHARGE =        4356.2578              RECHARGE =         564.4509

            TOTAL IN =      677877.6250              TOTAL IN =       43715.0547

          OUT:                                     OUT:
          ----                                     ----
             STORAGE =      676094.1250               STORAGE =       43517.2500
       CONSTANT HEAD =           0.0000         CONSTANT HEAD =           0.0000
               WELLS =        1590.2531                 WELLS =         198.4721
       RIVER LEAKAGE =         204.2491         RIVER LEAKAGE =           0.0000
            RECHARGE =           0.0000              RECHARGE =           0.0000

           TOTAL OUT =      677888.6250             TOTAL OUT =       43715.7227

            IN - OUT =         -11.0000              IN - OUT =          -0.6680

 PERCENT DISCREPANCY =          -0.00     PERCENT DISCREPANCY =          -0.00






         TIME SUMMARY AT END OF TIME STEP    7 IN STRESS PERIOD    2
                    SECONDS     MINUTES      HOURS       DAYS        YEARS
                    -----------------------------------------------------------
   TIME STEP LENGTH  86400.      1440.0      24.000      1.0000     2.73785E-03
 STRESS PERIOD TIME 6.04800E+05  10080.      168.00      7.0000     1.91650E-02
         TOTAL TIME 6.91200E+05  11520.      192.00      8.0000     2.19028E-02
1

 SOLVING FOR HEAD 

    ------------------------------------------------
       NWT REQUIRED            4 OUTER ITERATIONS 
       AND A TOTAL OF          5 INNER ITERATIONS.
    ------------------------------------------------

 OUTPUT CONTROL FOR STRESS PERIOD    2   TIME STEP    8
    SAVE HEAD FOR ALL LAYERS
    SAVE DRAWDOWN FOR ALL LAYERS
    SAVE BUDGET
    PRINT HEAD FOR ALL LAYERS
    PRINT BUDGET
1
              HEAD IN LAYER   1 AT END OF TIME STEP   8 IN STRESS PERIOD    2
  ---------------------------------------------------------------------------

            1           2           3           4           5           6           7           8           9          10
           11          12          13          14          15          16          17          18          19          20
 ........................................................................................................................
   1    0.000       0.000       0.000       0.000       0.000       7.293       7.281       7.307       7.329       7.342    
        7.346       7.343       7.378       8.261       7.373       7.336       7.353       7.366       0.000       0.000    
   2    0.000       0.000       0.000       0.000       7.314       7.293       7.238       7.301       7.326       7.339    
        7.343       7.340       7.368       8.266       7.359       7.319       7.347       7.364       0.000       0.000    
   3    0.000       0.000       0.000       7.330       7.323       7.344       7.346       7.351       7.354       7.360    
        7.361       7.351       7.354       8.253       7.338       7.266       7.339       7.366       0.000       0.000    
   4    0.000       0.000       7.333       7.338       7.380       8.217       8.218       8.235       8.264       8.246    
        8.216       7.995       7.397       8.290       7.356       7.330       7.359       7.379       0.000       0.000    
   5    0.000       0.000       7.495       7.706       8.264       8.045       7.393       7.378       7.375       7.372    
        7.383       8.150       8.305       8.001       7.363       7.361       7.380       7.397       7.415       0.000    
   6    0.000       8.261       8.319       8.206       7.611       7.376       7.364       7.368       7.367       7.361    
        7.354       7.372       7.381       7.372       7.367       7.378       7.390       7.403       7.417       0.000    
   7    0.000       7.383       7.392       7.389       7.376       7.380       7.386       7.387       7.381       7.370    
        7.359       7.360       7.366       7.371       7.377       7.382       7.387       7.394       0.000       0.000    
   8    0.000       7.375       7.388       7.394       7.399       7.404       7.405       7.400       7.388       7.368    
        7.345       7.359       7.371       7.378       7.379       7.375       7.371       7.378       0.000       0.000    
   9    0.000       0.000       7.413       7.416       7.419       7.420       7.417       7.409       7.391       7.358    
        7.287       7.348       7.371       7.378       7.373       7.356       7.335       7.358       7.376       7.388    
  10    0.000       0.000       7.426       7.427       7.428       7.428       7.424       7.413       7.395       7.367    
        7.338       7.357       7.372       7.376       7.365       7.330       7.251       7.332       7.369       7.386    

 HEAD WILL BE SAVED ON UNIT   51 AT END OF TIME STEP    8, STRESS PERIOD    2

 DRAWDOWN WILL BE SAVED ON UNIT   52 AT END OF TIME STEP    8, STRESS PERIOD    2
1
  VOLUMETRIC BUDGET FOR ENTIRE MODEL AT END OF TIME STEP    8, STRESS PERIOD   2
  ------------------------------------------------------------------------------

     CUMULATIVE VOLUMES      L**3       RATES FOR THIS TIME STEP      L**3/T
     ------------------                 ------------------------

           IN:                                      IN:
           ---                                      ---
             STORAGE =           0.0000               STORAGE =           0.0000
       CONSTANT HEAD =           0.0000         CONSTANT HEAD =           0.0000
               WELLS =           0.0000                 WELLS =           0.0000
       RIVER LEAKAGE =      709199.7500         RIVER LEAKAGE =       35678.3984
            RECHARGE =        4920.7085              RECHARGE =         564.4509

            TOTAL IN =      714120.4375              TOTAL IN =       36242.8477

          OUT:                                     OUT:
          ----                                     ----
             STORAGE =      712139.0625               STORAGE =       36044.9219
       CONSTANT HEAD =           0.0000         CONSTANT HEAD =           0.0000
               WELLS =        1788.7252                 WELLS =         198.4721
       RIVER LEAKAGE =         204.2491         RIVER LEAKAGE =           0.0000
            RECHARGE =           0.0000              RECHARGE =           0.0000

           TOTAL OUT =      714132.0625             TOTAL OUT =       36243.3945

            IN - OUT =         -11.6250              IN - OUT =          -0.5469

 PERCENT DISCREPANCY =          -0.00     PERCENT DISCREPANCY =          -0.00






         TIME SUMMARY AT END OF TIME STEP    8 IN STRESS PERIOD    2
                    SECONDS     MINUTES      HOURS       DAYS        YEARS
                    -----------------------------------------------------------
   TIME STEP LENGTH  86400.      1440.0      24.000      1.0000     2.73785E-03
 STRESS PERIOD TIME 6.91200E+05  11520.      192.00      8.0000     2.19028E-02
         TOTAL TIME 7.77600E+05  12960.      216.00      9.0000     2.46407E-02
1

 SOLVING FOR HEAD 

    ------------------------------------------------
       NWT REQUIRED            4 OUTER ITERATIONS 
       AND A TOTAL OF          5 INNER ITERATIONS.
    ------------------------------------------------

 OUTPUT CONTROL FOR STRESS PERIOD    2   TIME STEP    9
    SAVE HEAD FOR ALL LAYERS
    SAVE DRAWDOWN FOR ALL LAYERS
    SAVE BUDGET
    PRINT HEAD FOR ALL LAYERS
    PRINT BUDGET
1
              HEAD IN LAYER   1 AT END OF TIME STEP   9 IN STRESS PERIOD    2
  ---------------------------------------------------------------------------

            1           2           3           4           5           6           7           8           9          10
           11          12          13          14          15          16          17          18          19          20
 ........................................................................................................................
   1    0.000       0.000       0.000       0.000       0.000       7.293       7.281       7.307       7.329       7.342    
        7.346       7.343       7.386       8.283       7.381       7.336       7.353       7.366       0.000       0.000    
   2    0.000       0.000       0.000       0.000       7.314       7.294       7.238       7.301       7.327       7.339    
        7.343       7.341       7.374       8.288       7.365       7.319       7.347       7.364       0.000       0.000    
   3    0.000       0.000       0.000       7.331       7.324       7.350       7.355       7.358       7.359       7.365    
        7.366       7.355       7.359       8.279       7.342       7.266       7.339       7.366       0.000       0.000    
   4    0.000       0.000       7.334       7.341       7.389       8.245       8.245       8.261       8.288       8.272    
        8.246       8.038       7.409       8.310       7.361       7.330       7.359       7.379       0.000       0.000    
   5    0.000       0.000       7.516       7.743       8.287       8.087       7.403       7.384       7.381       7.377    
        7.392       8.186       8.321       8.045       7.366       7.361       7.380       7.397       7.415       0.000    
   6    0.000       8.288       8.333       8.237       7.642       7.381       7.364       7.368       7.367       7.361    
        7.355       7.376       7.386       7.376       7.367       7.378       7.390       7.403       7.417       0.000    
   7    0.000       7.388       7.397       7.394       7.378       7.380       7.386       7.387       7.381       7.370    
        7.359       7.361       7.366       7.372       7.377       7.382       7.387       7.394       0.000       0.000    
   8    0.000       7.375       7.388       7.394       7.399       7.404       7.405       7.400       7.388       7.368    
        7.345       7.359       7.371       7.378       7.379       7.375       7.371       7.378       0.000       0.000    
   9    0.000       0.000       7.413       7.416       7.419       7.420       7.417       7.409       7.391       7.358    
        7.287       7.348       7.371       7.378       7.373       7.356       7.335       7.358       7.376       7.388    
  10    0.000       0.000       7.426       7.427       7.428       7.428       7.424       7.413       7.395       7.367    
        7.338       7.357       7.372       7.376       7.365       7.330       7.251       7.332       7.369       7.386    

 HEAD WILL BE SAVED ON UNIT   51 AT END OF TIME STEP    9, STRESS PERIOD    2

 DRAWDOWN WILL BE SAVED ON UNIT   52 AT END OF TIME STEP    9, STRESS PERIOD    2
1
  VOLUMETRIC BUDGET FOR ENTIRE MODEL AT END OF TIME STEP    9, STRESS PERIOD   2
  ------------------------------------------------------------------------------

     CUMULATIVE VOLUMES      L**3       RATES FOR THIS TIME STEP      L**3/T
     ------------------                 ------------------------

           IN:                                      IN:
           ---                                      ---
             STORAGE =           0.0000               STORAGE =           0.0000
       CONSTANT HEAD =           0.0000         CONSTANT HEAD =           0.0000
               WELLS =           0.0000                 WELLS =           0.0000
       RIVER LEAKAGE =      739189.0000         RIVER LEAKAGE =       29989.2539
            RECHARGE =        5485.1592              RECHARGE =         564.4509

            TOTAL IN =      744674.1875              TOTAL IN =       30553.7051

          OUT:                                     OUT:
          ----                                     ----
             STORAGE =      742494.7500               STORAGE =       30355.6836
       CONSTANT HEAD =           0.0000         CONSTANT HEAD =           0.0000
               WELLS =        1987.1974                 WELLS =         198.4721
       RIVER LEAKAGE =         204.2491         RIVER LEAKAGE =           0.0000
            RECHARGE =           0.0000              RECHARGE =           0.0000

           TOTAL OUT =      744686.1875             TOTAL OUT =       30554.1562

            IN - OUT =         -12.0000              IN - OUT =          -0.4512

 PERCENT DISCREPANCY =          -0.00     PERCENT DISCREPANCY =          -0.00






         TIME SUMMARY AT END OF TIME STEP    9 IN STRESS PERIOD    2
                    SECONDS     MINUTES      HOURS       DAYS        YEARS
                    -----------------------------------------------------------
   TIME STEP LENGTH  86400.      1440.0      24.000      1.0000     2.73785E-03
 STRESS PERIOD TIME 7.77600E+05  12960.      216.00      9.0000     2.46407E-02
         TOTAL TIME 8.64000E+05  14400.      240.00      10.000     2.73785E-02
1

 SOLVING FOR HEAD 

    ------------------------------------------------
       NWT REQUIRED            4 OUTER ITERATIONS 
       AND A TOTAL OF          4 INNER ITERATIONS.
    ------------------------------------------------

 OUTPUT CONTROL FOR STRESS PERIOD    2   TIME STEP   10
    SAVE HEAD FOR ALL LAYERS
    SAVE DRAWDOWN FOR ALL LAYERS
    SAVE BUDGET
    PRINT HEAD FOR ALL LAYERS
    PRINT BUDGET
1
              HEAD IN LAYER   1 AT END OF TIME STEP  10 IN STRESS PERIOD    2
  ---------------------------------------------------------------------------

            1           2           3           4           5           6           7           8           9          10
           11          12          13          14          15          16          17          18          19          20
 ........................................................................................................................
   1    0.000       0.000       0.000       0.000       0.000       7.293       7.281       7.307       7.329       7.342    
        7.347       7.344       7.394       8.298       7.389       7.337       7.353       7.366       0.000       0.000    
   2    0.000       0.000       0.000       0.000       7.314       7.294       7.239       7.301       7.327       7.339    
        7.343       7.341       7.381       8.305       7.372       7.319       7.347       7.364       0.000       0.000    
   3    0.000       0.000       0.000       7.331       7.324       7.356       7.363       7.366       7.365       7.371    
        7.371       7.359       7.364       8.298       7.347       7.266       7.339       7.366       0.000       0.000    
   4    0.000       0.000       7.335       7.343       7.399       8.268       8.265       8.281       8.305       8.292    
        8.268       8.076       7.422       8.324       7.365       7.331       7.359       7.379       0.000       0.000    
   5    0.000       0.000       7.537       7.778       8.304       8.123       7.414       7.390       7.386       7.383    
        7.401       8.216       8.333       8.082       7.370       7.361       7.380       7.397       7.415       0.000    
   6    0.000       8.308       8.343       8.261       7.671       7.387       7.365       7.368       7.367       7.361    
        7.355       7.381       7.391       7.381       7.367       7.378       7.390       7.403       7.417       0.000    
   7    0.000       7.394       7.403       7.400       7.380       7.381       7.386       7.387       7.381       7.370    
        7.359       7.361       7.366       7.372       7.378       7.382       7.387       7.394       0.000       0.000    
   8    0.000       7.375       7.389       7.395       7.399       7.404       7.405       7.400       7.388       7.368    
        7.345       7.359       7.371       7.378       7.379       7.375       7.371       7.378       0.000       0.000    
   9    0.000       0.000       7.413       7.416       7.419       7.420       7.417       7.409       7.391       7.358    
        7.287       7.348       7.371       7.378       7.373       7.356       7.335       7.358       7.376       7.388    
  10    0.000       0.000       7.426       7.427       7.428       7.428       7.424       7.413       7.395       7.367    
        7.338       7.357       7.372       7.376       7.365       7.330       7.251       7.332       7.369       7.386    

 HEAD WILL BE SAVED ON UNIT   51 AT END OF TIME STEP   10, STRESS PERIOD    2

 DRAWDOWN WILL BE SAVED ON UNIT   52 AT END OF TIME STEP   10, STRESS PERIOD    2
1
  VOLUMETRIC BUDGET FOR ENTIRE MODEL AT END OF TIME STEP   10, STRESS PERIOD   2
  ------------------------------------------------------------------------------

     CUMULATIVE VOLUMES      L**3       RATES FOR THIS TIME STEP      L**3/T
     ------------------                 ------------------------

           IN:                                      IN:
           ---                                      ---
             STORAGE =           0.0000               STORAGE =           0.0000
       CONSTANT HEAD =           0.0000         CONSTANT HEAD =           0.0000
               WELLS =           0.0000                 WELLS =           0.0000
       RIVER LEAKAGE =      764819.1875         RIVER LEAKAGE =       25630.2031
            RECHARGE =        6049.6099              RECHARGE =         564.4509

            TOTAL IN =      770868.8125              TOTAL IN =       26194.6543

          OUT:                                     OUT:
          ----                                     ----
             STORAGE =      768491.3125               STORAGE =       25996.5625
       CONSTANT HEAD =           0.0000         CONSTANT HEAD =           0.0000
               WELLS =        2185.6694                 WELLS =         198.4721
       RIVER LEAKAGE =         204.2491         RIVER LEAKAGE =           0.0000
            RECHARGE =           0.0000              RECHARGE =           0.0000

           TOTAL OUT =      770881.2500             TOTAL OUT =       26195.0352

            IN - OUT =         -12.4375              IN - OUT =          -0.3809

 PERCENT DISCREPANCY =          -0.00     PERCENT DISCREPANCY =          -0.00






         TIME SUMMARY AT END OF TIME STEP   10 IN STRESS PERIOD    2
                    SECONDS     MINUTES      HOURS       DAYS        YEARS
                    -----------------------------------------------------------
   TIME STEP LENGTH  86400.      1440.0      24.000      1.0000     2.73785E-03
 STRESS PERIOD TIME 8.64000E+05  14400.      240.00      10.000     2.73785E-02
         TOTAL TIME 9.50400E+05  15840.      264.00      11.000     3.01164E-02
1

 SOLVING FOR HEAD 

    ------------------------------------------------
       NWT REQUIRED            4 OUTER ITERATIONS 
       AND A TOTAL OF          4 INNER ITERATIONS.
    ------------------------------------------------

 OUTPUT CONTROL FOR STRESS PERIOD    2   TIME STEP   11
    SAVE HEAD FOR ALL LAYERS
    SAVE DRAWDOWN FOR ALL LAYERS
    SAVE BUDGET
    PRINT HEAD FOR ALL LAYERS
    PRINT BUDGET
1
              HEAD IN LAYER   1 AT END OF TIME STEP  11 IN STRESS PERIOD    2
  ---------------------------------------------------------------------------

            1           2           3           4           5           6           7           8           9          10
           11          12          13          14          15          16          17          18          19          20
 ........................................................................................................................
   1    0.000       0.000       0.000       0.000       0.000       7.293       7.281       7.307       7.329       7.342    
        7.347       7.344       7.402       8.310       7.397       7.337       7.353       7.366       0.000       0.000    
   2    0.000       0.000       0.000       0.000       7.314       7.294       7.239       7.302       7.327       7.339    
        7.343       7.341       7.388       8.316       7.378       7.320       7.347       7.364       0.000       0.000    
   3    0.000       0.000       0.000       7.331       7.325       7.362       7.371       7.373       7.370       7.376    
        7.376       7.364       7.369       8.313       7.351       7.266       7.339       7.366       0.000       0.000    
   4    0.000       0.000       7.337       7.346       7.409       8.285       8.281       8.296       8.318       8.307    
        8.286       8.108       7.435       8.334       7.370       7.331       7.360       7.379       0.000       0.000    
   5    0.000       0.000       7.557       7.811       8.317       8.153       7.424       7.396       7.391       7.388    
        7.410       8.239       8.341       8.114       7.373       7.361       7.380       7.398       7.415       0.000    
   6    0.000       8.323       8.350       8.280       7.698       7.393       7.366       7.369       7.367       7.362    
        7.356       7.386       7.397       7.385       7.368       7.378       7.390       7.403       7.417       0.000    
   7    0.000       7.399       7.408       7.405       7.382       7.381       7.387       7.387       7.381       7.370    
        7.359       7.361       7.367       7.372       7.378       7.382       7.387       7.395       0.000       0.000    
   8    0.000       7.375       7.389       7.395       7.399       7.404       7.405       7.400       7.388       7.368    
        7.345       7.359       7.371       7.378       7.379       7.375       7.371       7.378       0.000       0.000    
   9    0.000       0.000       7.413       7.416       7.419       7.420       7.417       7.409       7.391       7.358    
        7.287       7.348       7.371       7.378       7.373       7.356       7.335       7.358       7.376       7.388    
  10    0.000       0.000       7.426       7.427       7.428       7.428       7.424       7.413       7.395       7.368    
        7.338       7.357       7.372       7.376       7.365       7.330       7.251       7.332       7.369       7.386    

 HEAD WILL BE SAVED ON UNIT   51 AT END OF TIME STEP   11, STRESS PERIOD    2

 DRAWDOWN WILL BE SAVED ON UNIT   52 AT END OF TIME STEP   11, STRESS PERIOD    2
1
  VOLUMETRIC BUDGET FOR ENTIRE MODEL AT END OF TIME STEP   11, STRESS PERIOD   2
  ------------------------------------------------------------------------------

     CUMULATIVE VOLUMES      L**3       RATES FOR THIS TIME STEP      L**3/T
     ------------------                 ------------------------

           IN:                                      IN:
           ---                                      ---
             STORAGE =           0.0000               STORAGE =           0.0000
       CONSTANT HEAD =           0.0000         CONSTANT HEAD =           0.0000
               WELLS =           0.0000                 WELLS =           0.0000
       RIVER LEAKAGE =      787086.5625         RIVER LEAKAGE =       22267.3945
            RECHARGE =        6614.0605              RECHARGE =         564.4509

            TOTAL IN =      793700.6250              TOTAL IN =       22831.8457

          OUT:                                     OUT:
          ----                                     ----
             STORAGE =      791125.0000               STORAGE =       22633.6973
       CONSTANT HEAD =           0.0000         CONSTANT HEAD =           0.0000
[...]
  10    0.000       0.000       7.443       7.443       7.441       7.436       7.428       7.416       7.397       7.370    
        7.340       7.360       7.376       7.380       7.367       7.331       7.245       7.332       7.371       7.387    

 HEAD WILL BE SAVED ON UNIT   51 AT END OF TIME STEP   97, STRESS PERIOD    3

 DRAWDOWN WILL BE SAVED ON UNIT   52 AT END OF TIME STEP   97, STRESS PERIOD    3
1
  VOLUMETRIC BUDGET FOR ENTIRE MODEL AT END OF TIME STEP   97, STRESS PERIOD   3
  ------------------------------------------------------------------------------

     CUMULATIVE VOLUMES      L**3       RATES FOR THIS TIME STEP      L**3/T
     ------------------                 ------------------------

           IN:                                      IN:
           ---                                      ---
             STORAGE =     1081816.7500               STORAGE =        1891.9401
       CONSTANT HEAD =           0.0000         CONSTANT HEAD =           0.0000
               WELLS =           0.0000                 WELLS =           0.0000
       RIVER LEAKAGE =     1458095.5000         RIVER LEAKAGE =           0.0000
            RECHARGE =       90168.1172              RECHARGE =         343.4863

            TOTAL IN =     2630080.2500              TOTAL IN =        2235.4263

          OUT:                                     OUT:
          ----                                     ----
             STORAGE =     1593464.6250               STORAGE =         412.2272
       CONSTANT HEAD =           0.0000         CONSTANT HEAD =           0.0000
               WELLS =       41736.7461                 WELLS =         223.5936
       RIVER LEAKAGE =      994977.6875         RIVER LEAKAGE =        1599.2323
            RECHARGE =           0.0000              RECHARGE =           0.0000

           TOTAL OUT =     2630179.0000             TOTAL OUT =        2235.0532

            IN - OUT =         -98.7500              IN - OUT =           0.3730

 PERCENT DISCREPANCY =          -0.00     PERCENT DISCREPANCY =           0.02






         TIME SUMMARY AT END OF TIME STEP   97 IN STRESS PERIOD    3
                    SECONDS     MINUTES      HOURS       DAYS        YEARS
                    -----------------------------------------------------------
   TIME STEP LENGTH  86400.      1440.0      24.000      1.0000     2.73785E-03
 STRESS PERIOD TIME 8.38080E+06 1.39680E+05  2328.0      97.000     0.26557    
         TOTAL TIME 1.71072E+07 2.85120E+05  4752.0      198.00     0.54209    
1

 SOLVING FOR HEAD 

    ------------------------------------------------
       NWT REQUIRED            3 OUTER ITERATIONS 
       AND A TOTAL OF          3 INNER ITERATIONS.
    ------------------------------------------------

 OUTPUT CONTROL FOR STRESS PERIOD    3   TIME STEP   98
    SAVE HEAD FOR ALL LAYERS
    SAVE DRAWDOWN FOR ALL LAYERS
    SAVE BUDGET
    PRINT HEAD FOR ALL LAYERS
    PRINT BUDGET
1
              HEAD IN LAYER   1 AT END OF TIME STEP  98 IN STRESS PERIOD    3
  ---------------------------------------------------------------------------

            1           2           3           4           5           6           7           8           9          10
           11          12          13          14          15          16          17          18          19          20
 ........................................................................................................................
   1    0.000       0.000       0.000       0.000       0.000       7.366       7.361       7.386       7.401       7.417    
        7.451       7.522       7.538       7.362       7.515       7.472       7.403       7.381       0.000       0.000    
   2    0.000       0.000       0.000       0.000       7.445       7.428       7.383       7.451       7.466       7.475    
        7.501       7.557       7.569       7.361       7.511       7.446       7.393       7.378       0.000       0.000    
   3    0.000       0.000       0.000       7.537       7.519       7.482       7.465       7.491       7.513       7.518    
        7.532       7.569       7.608       7.360       7.499       7.374       7.378       7.378       0.000       0.000    
   4    0.000       0.000       7.627       7.568       7.515       7.360       7.362       7.361       7.360       7.360    
        7.361       7.369       7.538       7.358       7.499       7.430       7.394       7.389       0.000       0.000    
   5    0.000       0.000       7.442       7.381       7.358       7.365       7.521       7.546       7.543       7.544    
        7.523       7.361       7.358       7.364       7.491       7.442       7.405       7.404       7.418       0.000    
   6    0.000       7.357       7.357       7.359       7.399       7.533       7.560       7.531       7.510       7.511    
        7.524       7.505       7.508       7.497       7.480       7.428       7.405       7.407       7.419       0.000    
   7    0.000       7.541       7.536       7.533       7.537       7.532       7.495       7.461       7.441       7.434    
        7.441       7.460       7.471       7.462       7.434       7.405       7.394       7.397       0.000       0.000    
   8    0.000       7.536       7.516       7.509       7.497       7.474       7.446       7.425       7.407       7.388    
        7.371       7.396       7.412       7.412       7.399       7.383       7.374       7.380       0.000       0.000    
   9    0.000       0.000       7.463       7.461       7.455       7.443       7.430       7.416       7.396       7.363    
        7.288       7.358       7.383       7.388       7.379       7.359       7.335       7.359       7.377       7.389    
  10    0.000       0.000       7.443       7.443       7.441       7.436       7.428       7.416       7.397       7.370    
        7.340       7.360       7.376       7.380       7.367       7.331       7.245       7.332       7.371       7.387    

 HEAD WILL BE SAVED ON UNIT   51 AT END OF TIME STEP   98, STRESS PERIOD    3

 DRAWDOWN WILL BE SAVED ON UNIT   52 AT END OF TIME STEP   98, STRESS PERIOD    3
1
  VOLUMETRIC BUDGET FOR ENTIRE MODEL AT END OF TIME STEP   98, STRESS PERIOD   3
  ------------------------------------------------------------------------------

     CUMULATIVE VOLUMES      L**3       RATES FOR THIS TIME STEP      L**3/T
     ------------------                 ------------------------

           IN:                                      IN:
           ---                                      ---
             STORAGE =     1083691.0000               STORAGE =        1874.2284
       CONSTANT HEAD =           0.0000         CONSTANT HEAD =           0.0000
               WELLS =           0.0000                 WELLS =           0.0000
       RIVER LEAKAGE =     1458095.5000         RIVER LEAKAGE =           0.0000
            RECHARGE =       90511.6016              RECHARGE =         343.4863

            TOTAL IN =     2632298.0000              TOTAL IN =        2217.7148

          OUT:                                     OUT:
          ----                                     ----
             STORAGE =     1593873.0000               STORAGE =         408.3540
       CONSTANT HEAD =           0.0000         CONSTANT HEAD =           0.0000
               WELLS =       41960.3398                 WELLS =         223.5936
       RIVER LEAKAGE =      996563.0625         RIVER LEAKAGE =        1585.3973
            RECHARGE =           0.0000              RECHARGE =           0.0000

           TOTAL OUT =     2632396.5000             TOTAL OUT =        2217.3450

            IN - OUT =         -98.5000              IN - OUT =           0.3699

 PERCENT DISCREPANCY =          -0.00     PERCENT DISCREPANCY =           0.02






         TIME SUMMARY AT END OF TIME STEP   98 IN STRESS PERIOD    3
                    SECONDS     MINUTES      HOURS       DAYS        YEARS
                    -----------------------------------------------------------
   TIME STEP LENGTH  86400.      1440.0      24.000      1.0000     2.73785E-03
 STRESS PERIOD TIME 8.46720E+06 1.41120E+05  2352.0      98.000     0.26831    
         TOTAL TIME 1.71936E+07 2.86560E+05  4776.0      199.00     0.54483    
1

 SOLVING FOR HEAD 

    ------------------------------------------------
       NWT REQUIRED            3 OUTER ITERATIONS 
       AND A TOTAL OF          3 INNER ITERATIONS.
    ------------------------------------------------

 OUTPUT CONTROL FOR STRESS PERIOD    3   TIME STEP   99
    SAVE HEAD FOR ALL LAYERS
    SAVE DRAWDOWN FOR ALL LAYERS
    SAVE BUDGET
    PRINT HEAD FOR ALL LAYERS
    PRINT BUDGET
1
              HEAD IN LAYER   1 AT END OF TIME STEP  99 IN STRESS PERIOD    3
  ---------------------------------------------------------------------------

            1           2           3           4           5           6           7           8           9          10
           11          12          13          14          15          16          17          18          19          20
 ........................................................................................................................
   1    0.000       0.000       0.000       0.000       0.000       7.366       7.361       7.387       7.401       7.417    
        7.451       7.522       7.537       7.362       7.513       7.472       7.404       7.381       0.000       0.000    
   2    0.000       0.000       0.000       0.000       7.446       7.428       7.383       7.451       7.465       7.476    
        7.501       7.557       7.567       7.361       7.510       7.446       7.393       7.378       0.000       0.000    
   3    0.000       0.000       0.000       7.537       7.518       7.481       7.464       7.490       7.512       7.517    
        7.531       7.568       7.606       7.360       7.498       7.374       7.379       7.378       0.000       0.000    
   4    0.000       0.000       7.626       7.567       7.514       7.360       7.362       7.361       7.359       7.360    
        7.361       7.368       7.535       7.358       7.498       7.430       7.394       7.389       0.000       0.000    
   5    0.000       0.000       7.441       7.381       7.358       7.365       7.519       7.544       7.542       7.542    
        7.522       7.361       7.358       7.364       7.490       7.442       7.405       7.404       7.418       0.000    
   6    0.000       7.357       7.357       7.359       7.399       7.532       7.559       7.531       7.510       7.511    
        7.523       7.504       7.507       7.496       7.480       7.429       7.405       7.407       7.419       0.000    
   7    0.000       7.540       7.535       7.532       7.536       7.532       7.495       7.461       7.441       7.434    
        7.442       7.460       7.471       7.462       7.434       7.405       7.394       7.397       0.000       0.000    
   8    0.000       7.536       7.516       7.509       7.497       7.474       7.446       7.425       7.407       7.388    
        7.371       7.396       7.412       7.412       7.399       7.383       7.374       7.380       0.000       0.000    
   9    0.000       0.000       7.464       7.461       7.455       7.443       7.430       7.416       7.396       7.363    
        7.288       7.358       7.383       7.388       7.379       7.359       7.335       7.359       7.377       7.389    
  10    0.000       0.000       7.443       7.443       7.441       7.436       7.428       7.416       7.397       7.370    
        7.340       7.360       7.376       7.380       7.367       7.331       7.245       7.332       7.371       7.387    

 HEAD WILL BE SAVED ON UNIT   51 AT END OF TIME STEP   99, STRESS PERIOD    3

 DRAWDOWN WILL BE SAVED ON UNIT   52 AT END OF TIME STEP   99, STRESS PERIOD    3
1
  VOLUMETRIC BUDGET FOR ENTIRE MODEL AT END OF TIME STEP   99, STRESS PERIOD   3
  ------------------------------------------------------------------------------

     CUMULATIVE VOLUMES      L**3       RATES FOR THIS TIME STEP      L**3/T
     ------------------                 ------------------------

           IN:                                      IN:
           ---                                      ---
             STORAGE =     1085547.7500               STORAGE =        1856.7664
       CONSTANT HEAD =           0.0000         CONSTANT HEAD =           0.0000
               WELLS =           0.0000                 WELLS =           0.0000
       RIVER LEAKAGE =     1458095.5000         RIVER LEAKAGE =           0.0000
            RECHARGE =       90855.0859              RECHARGE =         343.4863

            TOTAL IN =     2634498.2500              TOTAL IN =        2200.2527

          OUT:                                     OUT:
          ----                                     ----
             STORAGE =     1594277.5000               STORAGE =         404.4999
       CONSTANT HEAD =           0.0000         CONSTANT HEAD =           0.0000
               WELLS =       42183.9336                 WELLS =         223.5936
       RIVER LEAKAGE =      998134.8750         RIVER LEAKAGE =        1571.7928
            RECHARGE =           0.0000              RECHARGE =           0.0000

           TOTAL OUT =     2634596.2500             TOTAL OUT =        2199.8862

            IN - OUT =         -98.0000              IN - OUT =           0.3665

 PERCENT DISCREPANCY =          -0.00     PERCENT DISCREPANCY =           0.02






         TIME SUMMARY AT END OF TIME STEP   99 IN STRESS PERIOD    3
                    SECONDS     MINUTES      HOURS       DAYS        YEARS
                    -----------------------------------------------------------
   TIME STEP LENGTH  86400.      1440.0      24.000      1.0000     2.73785E-03
 STRESS PERIOD TIME 8.55360E+06 1.42560E+05  2376.0      99.000     0.27105    
         TOTAL TIME 1.72800E+07 2.88000E+05  4800.0      200.00     0.54757    
1

 SOLVING FOR HEAD 

    ------------------------------------------------
       NWT REQUIRED            3 OUTER ITERATIONS 
       AND A TOTAL OF          3 INNER ITERATIONS.
    ------------------------------------------------

 OUTPUT CONTROL FOR STRESS PERIOD    3   TIME STEP  100
    SAVE HEAD FOR ALL LAYERS
    SAVE DRAWDOWN FOR ALL LAYERS
    SAVE BUDGET
    PRINT HEAD FOR ALL LAYERS
    PRINT BUDGET
1
              HEAD IN LAYER   1 AT END OF TIME STEP 100 IN STRESS PERIOD    3
  ---------------------------------------------------------------------------

            1           2           3           4           5           6           7           8           9          10
           11          12          13          14          15          16          17          18          19          20
 ........................................................................................................................
   1    0.000       0.000       0.000       0.000       0.000       7.367       7.362       7.387       7.402       7.418    
        7.452       7.522       7.535       7.362       7.512       7.472       7.404       7.381       0.000       0.000    
   2    0.000       0.000       0.000       0.000       7.446       7.428       7.382       7.450       7.465       7.476    
        7.501       7.557       7.566       7.361       7.509       7.446       7.393       7.379       0.000       0.000    
   3    0.000       0.000       0.000       7.537       7.518       7.480       7.463       7.489       7.510       7.516    
        7.530       7.567       7.604       7.360       7.497       7.374       7.379       7.378       0.000       0.000    
   4    0.000       0.000       7.625       7.565       7.513       7.360       7.362       7.361       7.359       7.360    
        7.361       7.368       7.533       7.358       7.497       7.429       7.394       7.389       0.000       0.000    
   5    0.000       0.000       7.440       7.381       7.357       7.365       7.517       7.543       7.541       7.541    
        7.520       7.361       7.358       7.364       7.489       7.442       7.406       7.404       7.418       0.000    
   6    0.000       7.357       7.357       7.359       7.398       7.530       7.559       7.531       7.510       7.510    
        7.523       7.503       7.506       7.495       7.480       7.429       7.405       7.407       7.419       0.000    
   7    0.000       7.539       7.534       7.531       7.535       7.531       7.496       7.461       7.441       7.435    
        7.442       7.459       7.471       7.462       7.434       7.405       7.394       7.397       0.000       0.000    
   8    0.000       7.536       7.516       7.508       7.497       7.474       7.447       7.425       7.407       7.388    
        7.372       7.396       7.412       7.413       7.399       7.383       7.374       7.380       0.000       0.000    
   9    0.000       0.000       7.464       7.461       7.455       7.444       7.430       7.416       7.396       7.363    
        7.288       7.358       7.383       7.388       7.379       7.359       7.335       7.359       7.377       7.389    
  10    0.000       0.000       7.444       7.443       7.441       7.436       7.428       7.416       7.397       7.370    
        7.340       7.360       7.376       7.380       7.367       7.331       7.244       7.332       7.371       7.387    

 HEAD WILL BE SAVED ON UNIT   51 AT END OF TIME STEP  100, STRESS PERIOD    3

 DRAWDOWN WILL BE SAVED ON UNIT   52 AT END OF TIME STEP  100, STRESS PERIOD    3
1
  VOLUMETRIC BUDGET FOR ENTIRE MODEL AT END OF TIME STEP  100, STRESS PERIOD   3
  ------------------------------------------------------------------------------

     CUMULATIVE VOLUMES      L**3       RATES FOR THIS TIME STEP      L**3/T
     ------------------                 ------------------------

           IN:                                      IN:
           ---                                      ---
             STORAGE =     1087387.2500               STORAGE =        1839.5310
       CONSTANT HEAD =           0.0000         CONSTANT HEAD =           0.0000
               WELLS =           0.0000                 WELLS =           0.0000
       RIVER LEAKAGE =     1458095.5000         RIVER LEAKAGE =           0.0000
            RECHARGE =       91198.5703              RECHARGE =         343.4863

            TOTAL IN =     2636681.2500              TOTAL IN =        2183.0173

          OUT:                                     OUT:
          ----                                     ----
             STORAGE =     1594678.1250               STORAGE =         400.6650
       CONSTANT HEAD =           0.0000         CONSTANT HEAD =           0.0000
               WELLS =       42407.5273                 WELLS =         223.5936
       RIVER LEAKAGE =      999693.2500         RIVER LEAKAGE =        1558.3958
            RECHARGE =           0.0000              RECHARGE =           0.0000

           TOTAL OUT =     2636779.0000             TOTAL OUT =        2182.6543

            IN - OUT =         -97.7500              IN - OUT =           0.3630

 PERCENT DISCREPANCY =          -0.00     PERCENT DISCREPANCY =           0.02






         TIME SUMMARY AT END OF TIME STEP  100 IN STRESS PERIOD    3
                    SECONDS     MINUTES      HOURS       DAYS        YEARS
                    -----------------------------------------------------------
   TIME STEP LENGTH  86400.      1440.0      24.000      1.0000     2.73785E-03
 STRESS PERIOD TIME 8.64000E+06 1.44000E+05  2400.0      100.00     0.27379    
         TOTAL TIME 1.73664E+07 2.89440E+05  4824.0      201.00     0.55031    
1

 Run end date and time (yyyy/mm/dd hh:mm:ss): 2014/11/18 15:27:24
 Elapsed run time:  0.136 Seconds

