                                  MODFLOW-NWT-SWR1 
      U.S. GEOLOGICAL SURVEY MODULAR FINITE-DIFFERENCE GROUNDWATER-FLOW MODEL
                            VERSION 1.0.9 07/01/2014
                    BASED ON MODFLOW-2005 VERSION 1.11.00 08/30/2013

 LIST FILE: flopy_model.list
                         UNIT    2

 OPENING flopy_model.nwt
 FILE TYPE:NWT   UNIT   32   STATUS:OLD    
 FORMAT:FORMATTED              ACCESS:SEQUENTIAL          

 OPENING flopy_model.dis
 FILE TYPE:DIS   UNIT   11   STATUS:OLD    
 FORMAT:FORMATTED              ACCESS:SEQUENTIAL          

 OPENING flopy_model.bas
 FILE TYPE:BAS6   UNIT   13   STATUS:OLD    
 FORMAT:FORMATTED              ACCESS:SEQUENTIAL          

 OPENING flopy_model.upw
 FILE TYPE:UPW   UNIT   31   STATUS:OLD    
 FORMAT:FORMATTED              ACCESS:SEQUENTIAL          

 OPENING flopy_model.wel
 FILE TYPE:WEL   UNIT   20   STATUS:OLD    
 FORMAT:FORMATTED              ACCESS:SEQUENTIAL          

 OPENING flopy_model.riv
 FILE TYPE:RIV   UNIT   18   STATUS:OLD    
 FORMAT:FORMATTED              ACCESS:SEQUENTIAL          

 OPENING flopy_model.rch
 FILE TYPE:RCH   UNIT   19   STATUS:OLD    
 FORMAT:FORMATTED              ACCESS:SEQUENTIAL          

 OPENING flopy_model.oc
 FILE TYPE:OC   UNIT   14   STATUS:OLD    
 FORMAT:FORMATTED              ACCESS:SEQUENTIAL          

 OPENING flopy_model.hds
 FILE TYPE:DATA(BINARY)   UNIT   51   STATUS:REPLACE
 FORMAT:UNFORMATTED            ACCESS:STREAM              

 OPENING flopy_model.ddn
 FILE TYPE:DATA(BINARY)   UNIT   52   STATUS:REPLACE
 FORMAT:UNFORMATTED            ACCESS:STREAM              

 OPENING flopy_model.cbc
 FILE TYPE:DATA(BINARY)   UNIT   53   STATUS:REPLACE
 FORMAT:UNFORMATTED            ACCESS:STREAM              

 BAS -- BASIC PACKAGE, VERSION 7, 5/2/2005 INPUT READ FROM UNIT   13

 MODFLOW was compiled using mixed precision
 Precision of REAL variables:           6
 Precision of DOUBLE PRECISION variables:          15

 DISCRETIZATION INPUT DATA READ FROM UNIT   11
 # Discretization file for MODFLOW, generated by Flopy.
    1 LAYERS        10 ROWS        20 COLUMNS
    3 STRESS PERIOD(S) IN SIMULATION
 MODEL TIME UNIT IS DAYS
 MODEL LENGTH UNIT IS METERS
  Confining bed flag for each layer:
   0

                     DELR =   2857.99    

                     DELC =   2616.01    

 TOP ELEVATION OF LAYER 1 =   0.00000    

   MODEL LAYER BOTTOM EL. =  -50.0000     FOR LAYER   1


 STRESS PERIOD     LENGTH       TIME STEPS     MULTIPLIER FOR DELT    SS FLAG
 ----------------------------------------------------------------------------
        1         1.000000          1                    1.000         SS
        2         100.0000        100                    1.000         TR
        3         100.0000        100                    1.000         TR

 COMBINED STEADY-STATE AND TRANSIENT SIMULATION




 # Basic package file for MODFLOW, generated by Flopy.                           
 THE FREE FORMAT OPTION HAS BEEN SELECTED



                     BOUNDARY ARRAY FOR LAYER   1
 READING ON UNIT   13 WITH FORMAT: (20I10)             

 AQUIFER HEAD WILL BE SET TO   0.0000     AT ALL NO-FLOW NODES (IBOUND=0).



                       INITIAL HEAD FOR LAYER   1
 READING ON UNIT   13 WITH FORMAT: (20G15.6)           
 # Output control package file for MODFLOW, generated by Flopy. Output control by words option

 OUTPUT CONTROL IS SPECIFIED ONLY AT TIME STEPS FOR WHICH OUTPUT IS DESIRED
 HEAD PRINT FORMAT CODE IS   0    DRAWDOWN PRINT FORMAT CODE IS   0
 HEADS WILL BE SAVED ON UNIT   51    DRAWDOWNS WILL BE SAVED ON UNIT   52
 # NWT for MODFLOW-NWT, generated by Flopy.

 NWT1 -- Newton Solver, VERSION 1.0.9, 07/01/2014
         INPUT READ FROM UNIT 32

 COMPLEX OPTION:
 DEFAULT SOLVER INPUT VALUES REFLECT STRONGLY NONLINEAR MODEL
 ***GMRES linear solver will be used***

   CONVERGENCE CRITERION OF   0.100000E-03 FOR HEAD SOLUTION
   AND A TOLERANCE OF   0.500000E+03 FOR FLOW SOLUTION AND 
   A MAXIMUM OF   100 OUTER ITERATIONS. 


   D-B-D REDUCTION FACTOR OF    0.850000E+00 AND 
   A D-B-D INCREASE FACTOR OF    0.100000E-04 AND 
   A D-B-D RELAXATION OF    0.000000E+00 AND 
   A MOMENTUM FACTOR OF    0.100000E+00 .


   BACKTRACKING IS ACTIVE 
   THE MAXIMUM NUMBER OF BACKTRACKS IS    50 AND 
   THE BACKTRACKING TOLERANCE IS    0.110000E+01 AND
   THE BACKTRACKING REDUCTION FACTOR IS    0.700000E+00

 GMRES -- LINEAR SOLUTION BY GMRES PACKAGE 
     adapted for HYDROTHERM by Kipp and others (2008)
     using software originally developed by Saad (1990) 32
     using algorithms described in Saad (2003)

 UPW1 -- UPSTREAM WEIGHTING FLOW PACKAGE, VERSION 1.0.6, 12/05/2012
         INPUT READ FROM UNIT 31

 # UPW for MODFLOW-NWT, generated by Flopy.
 No named parameters

   LAYER FLAGS:
 LAYER       LAYTYP          LAYAVG    CHANI           LAYVKA           LAYWET
 ---------------------------------------------------------------------------
    1             1             1     1.000E+00             1             0

   INTERPRETATION OF LAYER FLAGS:
                        INTERBLOCK     HORIZONTAL    DATA IN
         LAYER TYPE   TRANSMISSIVITY   ANISOTROPY   ARRAY VKA   WETTABILITY
 LAYER   (LAYTYP)        (LAYAVG)      (CHANI)     (LAYVKA)       (LAYWET)
 ---------------------------------------------------------------------------
    1   CONVERTIBLE   LOGARITHMIC     1.000E+00    ANISOTROPY  NON-WETTABLE



              HYD. COND. ALONG ROWS FOR LAYER   1
 READING ON UNIT   31 WITH FORMAT: (20G15.6)           

  HORIZ. TO VERTICAL ANI. =   1.00000     FOR LAYER   1

         SPECIFIC STORAGE =  1.000000E-04 FOR LAYER   1



                     SPECIFIC YIELD FOR LAYER   1
 READING ON UNIT   31 WITH FORMAT: (20G15.6)           

 WEL -- WELL PACKAGE, VERSION 1.0.6, 12/05/2012 INPUT READ FROM UNIT   20
 # Well file for MODFLOW, generated by Flopy.
 No named parameters
 MAXIMUM OF      4 ACTIVE WELLS AT ONE TIME
 No named parameters
  PHIRAMP WILL BE SET TO A DEFAULT VALUE OF 0.05
  WELLS WITH REDUCED PUMPING WILL BE REPORTED TO THE MAIN LISTING FILE


     0 Well parameters

 RIV -- RIVER PACKAGE, VERSION 7, 5/2/2005 INPUT READ FROM UNIT   18
 # RIV for MODFLOW, generated by Flopy.
 No named parameters
 MAXIMUM OF     22 ACTIVE RIVER REACHES AT ONE TIME


     0 River parameters

 RCH -- RECHARGE PACKAGE, VERSION 7, 5/2/2005 INPUT READ FROM UNIT   19
 # RCH for MODFLOW, generated by Flopy.
 No named parameters
 OPTION 3 -- RECHARGE TO HIGHEST ACTIVE NODE IN EACH VERTICAL COLUMN


     0 Recharge parameters
1
                            STRESS PERIOD NO.    1, LENGTH =   1.000000    
                            -----------------------------------------------

                              NUMBER OF TIME STEPS =     1

                               MULTIPLIER FOR DELT =     1.000

                            INITIAL TIME STEP SIZE =   1.000000    

 WELL NO.  LAYER   ROW   COL   STRESS RATE         
 --------------------------------------------------
      1      1      7      9      -175.2    
      2      1      7     14      -34.41    
      3      1      3     16      -299.9    
      4      1      2      7       0.000    

      4 WELLS

 REACH NO.  LAYER   ROW   COL     STAGE      CONDUCTANCE     BOTTOM EL.         
 -------------------------------------------------------------------------------
      1      1      1     14     -0.6413           3334.          -3.000    
      2      1      2     14     -0.6413           3302.          -3.000    
      3      1      3     14     -0.6413           2941.          -3.000    
      4      1      4      6     -0.6413           2595.          -3.000    
      5      1      4      7     -0.6413           2654.          -3.000    
      6      1      4      8     -0.6413           2734.          -3.000    
      7      1      4      9     -0.6413           3007.          -3.000    
      8      1      4     10     -0.6413           2766.          -3.000    
      9      1      4     11     -0.6413           2487.          -3.000    
     10      1      4     12     -0.6413           1221.          -3.000    
     11      1      4     14     -0.6413           3631.          -3.000    
     12      1      5      3     -0.6413           172.7          -3.000    
     13      1      5      4     -0.6413           505.2          -3.000    
     14      1      5      5     -0.6413           3267.          -3.000    
     15      1      5      6     -0.6413           1418.          -3.000    
     16      1      5     12     -0.6413           1969.          -3.000    
     17      1      5     13     -0.6413           4006.          -3.000    
     18      1      5     14     -0.6413           1262.          -3.000    
     19      1      6      2     -0.6413           3066.          -3.000    
     20      1      6      3     -0.6413           4538.          -3.000    
     21      1      6      4     -0.6413           2546.          -3.000    
     22      1      6      5     -0.6413           323.7          -3.000    

     22 RIVER REACHES



                           RECHARGE
 READING ON UNIT   19 WITH FORMAT: (20G15.6)           

 SOLVING FOR HEAD 

    ------------------------------------------------
       NWT REQUIRED            7 OUTER ITERATIONS 
       AND A TOTAL OF         39 INNER ITERATIONS.
    ------------------------------------------------

 OUTPUT CONTROL FOR STRESS PERIOD    1   TIME STEP    1
    SAVE HEAD FOR ALL LAYERS
    SAVE DRAWDOWN FOR ALL LAYERS
    SAVE BUDGET
    PRINT HEAD FOR ALL LAYERS
    PRINT BUDGET
1
              HEAD IN LAYER   1 AT END OF TIME STEP   1 IN STRESS PERIOD    1
  ---------------------------------------------------------------------------

            1           2           3           4           5           6           7           8           9          10
           11          12          13          14          15          16          17          18          19          20
 ........................................................................................................................
   1    0.000       0.000       0.000       0.000       0.000       10.45       10.31       10.75       11.43       11.36    
        10.12       7.247       2.158     -0.1817       5.785       21.50       31.85       37.39       0.000       0.000    
   2    0.000       0.000       0.000       0.000       8.260       7.841       7.048       7.736       9.230       9.510    
        8.642       6.466       2.512     -0.2070       8.358       23.26       33.55       39.45       0.000       0.000    
   3    0.000       0.000       0.000       6.229       5.908       4.002       3.174       3.753       5.170       5.720    
        5.369       4.323       2.722     -0.3246       14.11       26.03       36.99       43.71       0.000       0.000    
   4    0.000       0.000       3.520       3.838       2.675     -0.3134     -9.5164E-02 -0.1369     -0.2990     -0.2569    
      -0.2633     -0.2589       1.317     -0.3236       19.04       32.30       42.04       50.67       0.000       0.000    
   5    0.000       0.000      0.6321      4.1137E-02 -0.4809     -1.0108E-02   4.927       8.243       11.39       12.06    
        9.918      0.1669     -0.2676       1.316       26.07       39.59       53.30       64.37       75.29       0.000    
   6    0.000     -0.4080     -0.4476     -0.2396       2.442       10.72       16.00       19.65       22.26       23.81    
        23.56       21.51       22.92       28.11       40.90       53.35       67.71       72.79       77.75       0.000    
   7    0.000       9.728       11.31       13.16       16.28       21.29       25.69       29.09       31.12       34.11    
        35.72       36.97       39.97       45.52       54.80       65.04       74.09       80.14       0.000       0.000    
   8    0.000       15.94       20.25       22.88       25.90       29.70       33.47       36.82       39.67       42.59    
        45.19       47.97       51.87       57.47       64.94       73.11       80.60       88.69       0.000       0.000    
   9    0.000       0.000       28.00       29.67       32.24       35.44       38.84       42.15       45.28       48.40    
        51.55       55.04       59.39       64.91       71.60       78.93       86.38       94.34       102.2       107.1    
  10    0.000       0.000       31.75       33.10       35.41       38.35       41.58       44.85       48.08       51.32    
        54.70       58.49       63.01       68.49       74.88       81.88       89.10       96.34       102.7       106.4    

 HEAD WILL BE SAVED ON UNIT   51 AT END OF TIME STEP    1, STRESS PERIOD    1

 DRAWDOWN WILL BE SAVED ON UNIT   52 AT END OF TIME STEP    1, STRESS PERIOD    1
1
  VOLUMETRIC BUDGET FOR ENTIRE MODEL AT END OF TIME STEP    1, STRESS PERIOD   1
  ------------------------------------------------------------------------------

     CUMULATIVE VOLUMES      L**3       RATES FOR THIS TIME STEP      L**3/T
     ------------------                 ------------------------

           IN:                                      IN:
           ---                                      ---
             STORAGE =           0.0000               STORAGE =           0.0000
       CONSTANT HEAD =           0.0000         CONSTANT HEAD =           0.0000
               WELLS =           0.0000                 WELLS =           0.0000
       RIVER LEAKAGE =           0.0000         RIVER LEAKAGE =           0.0000
            RECHARGE =       23896.3672              RECHARGE =       23896.3672

            TOTAL IN =       23896.3672              TOTAL IN =       23896.3672

          OUT:                                     OUT:
          ----                                     ----
             STORAGE =           0.0000               STORAGE =           0.0000
       CONSTANT HEAD =           0.0000         CONSTANT HEAD =           0.0000
               WELLS =         509.4487                 WELLS =         509.4487
       RIVER LEAKAGE =       23386.9219         RIVER LEAKAGE =       23386.9219
            RECHARGE =           0.0000              RECHARGE =           0.0000

           TOTAL OUT =       23896.3711             TOTAL OUT =       23896.3711

            IN - OUT =      -3.9062E-03              IN - OUT =      -3.9062E-03

 PERCENT DISCREPANCY =          -0.00     PERCENT DISCREPANCY =          -0.00






         TIME SUMMARY AT END OF TIME STEP    1 IN STRESS PERIOD    1
                    SECONDS     MINUTES      HOURS       DAYS        YEARS
                    -----------------------------------------------------------
   TIME STEP LENGTH  86400.      1440.0      24.000      1.0000     2.73785E-03
 STRESS PERIOD TIME  86400.      1440.0      24.000      1.0000     2.73785E-03
         TOTAL TIME  86400.      1440.0      24.000      1.0000     2.73785E-03
1
1
                            STRESS PERIOD NO.    2, LENGTH =   100.0000    
                            -----------------------------------------------

                              NUMBER OF TIME STEPS =   100

                               MULTIPLIER FOR DELT =     1.000

                            INITIAL TIME STEP SIZE =   1.000000    

 WELL NO.  LAYER   ROW   COL   STRESS RATE         
 --------------------------------------------------
      1      1      7      9      -175.2    
      2      1      7     14      -34.41    
      3      1      3     16      -299.9    
      4      1      2      7       0.000    

      4 WELLS

 REACH NO.  LAYER   ROW   COL     STAGE      CONDUCTANCE     BOTTOM EL.         
 -------------------------------------------------------------------------------
      1      1      1     14     -0.7661           3334.          -3.000    
      2      1      2     14     -0.7661           3302.          -3.000    
      3      1      3     14     -0.7661           2941.          -3.000    
      4      1      4      6     -0.7661           2595.          -3.000    
      5      1      4      7     -0.7661           2654.          -3.000    
      6      1      4      8     -0.7661           2734.          -3.000    
      7      1      4      9     -0.7661           3007.          -3.000    
      8      1      4     10     -0.7661           2766.          -3.000    
      9      1      4     11     -0.7661           2487.          -3.000    
     10      1      4     12     -0.7661           1221.          -3.000    
     11      1      4     14     -0.7661           3631.          -3.000    
     12      1      5      3     -0.7661           172.7          -3.000    
     13      1      5      4     -0.7661           505.2          -3.000    
     14      1      5      5     -0.7661           3267.          -3.000    
     15      1      5      6     -0.7661           1418.          -3.000    
     16      1      5     12     -0.7661           1969.          -3.000    
     17      1      5     13     -0.7661           4006.          -3.000    
     18      1      5     14     -0.7661           1262.          -3.000    
     19      1      6      2     -0.7661           3066.          -3.000    
     20      1      6      3     -0.7661           4538.          -3.000    
     21      1      6      4     -0.7661           2546.          -3.000    
     22      1      6      5     -0.7661           323.7          -3.000    

     22 RIVER REACHES



                           RECHARGE
 READING ON UNIT   19 WITH FORMAT: (20G15.6)           

 SOLVING FOR HEAD 

    ------------------------------------------------
       NWT REQUIRED            3 OUTER ITERATIONS 
       AND A TOTAL OF          3 INNER ITERATIONS.
    ------------------------------------------------

 OUTPUT CONTROL FOR STRESS PERIOD    2   TIME STEP    1
    SAVE HEAD FOR ALL LAYERS
    SAVE DRAWDOWN FOR ALL LAYERS
    SAVE BUDGET
    PRINT HEAD FOR ALL LAYERS
    PRINT BUDGET
1
              HEAD IN LAYER   1 AT END OF TIME STEP   1 IN STRESS PERIOD    2
  ---------------------------------------------------------------------------

            1           2           3           4           5           6           7           8           9          10
           11          12          13          14          15          16          17          18          19          20
 ........................................................................................................................
   1    0.000       0.000       0.000       0.000       0.000       10.46       10.31       10.75       11.43       11.36    
        10.12       7.249       2.160     -0.1822       5.786       21.50       31.85       37.39       0.000       0.000    
   2    0.000       0.000       0.000       0.000       8.261       7.843       7.050       7.738       9.231       9.512    
        8.643       6.467       2.513     -0.2077       8.359       23.26       33.55       39.45       0.000       0.000    
   3    0.000       0.000       0.000       6.230       5.909       4.004       3.176       3.754       5.172       5.721    
        5.370       4.324       2.724     -0.3258       14.11       26.03       36.99       43.71       0.000       0.000    
   4    0.000       0.000       3.522       3.840       2.677     -0.3142     -9.5714E-02 -0.1377     -0.3002     -0.2580    
      -0.2643     -0.2593       1.318     -0.3251       19.04       32.30       42.04       50.67       0.000       0.000    
   5    0.000       0.000      0.6331      4.0996E-02 -0.4822     -1.0561E-02   4.928       8.244       11.39       12.06    
        9.919      0.1621     -0.2693       1.314       26.07       39.59       53.30       64.37       75.30       0.000    
   6    0.000     -0.4092     -0.4495     -0.2406       2.443       10.72       16.00       19.65       22.27       23.81    
        23.56       21.51       22.92       28.11       40.90       53.35       67.71       72.79       77.75       0.000    
   7    0.000       9.729       11.31       13.16       16.28       21.29       25.69       29.09       31.12       34.11    
        35.72       36.98       39.97       45.52       54.80       65.05       74.09       80.14       0.000       0.000    
   8    0.000       15.94       20.25       22.88       25.90       29.70       33.47       36.82       39.67       42.59    
        45.19       47.97       51.87       57.47       64.94       73.11       80.60       88.69       0.000       0.000    
   9    0.000       0.000       28.00       29.67       32.24       35.44       38.85       42.15       45.29       48.40    
        51.55       55.04       59.39       64.91       71.60       78.93       86.38       94.35       102.2       107.1    
  10    0.000       0.000       31.75       33.10       35.41       38.35       41.58       44.85       48.08       51.32    
        54.71       58.49       63.01       68.49       74.89       81.88       89.10       96.34       102.7       106.4    

 HEAD WILL BE SAVED ON UNIT   51 AT END OF TIME STEP    1, STRESS PERIOD    2

 DRAWDOWN WILL BE SAVED ON UNIT   52 AT END OF TIME STEP    1, STRESS PERIOD    2
1
  VOLUMETRIC BUDGET FOR ENTIRE MODEL AT END OF TIME STEP    1, STRESS PERIOD   2
  ------------------------------------------------------------------------------

     CUMULATIVE VOLUMES      L**3       RATES FOR THIS TIME STEP      L**3/T
     ------------------                 ------------------------

           IN:                                      IN:
           ---                                      ---
             STORAGE =        5417.2266               STORAGE =        5417.2266
       CONSTANT HEAD =           0.0000         CONSTANT HEAD =           0.0000
               WELLS =           0.0000                 WELLS =           0.0000
       RIVER LEAKAGE =           0.0000         RIVER LEAKAGE =           0.0000
            RECHARGE =       57192.5273              RECHARGE =       33296.1602

            TOTAL IN =       62609.7539              TOTAL IN =       38713.3867

          OUT:                                     OUT:
          ----                                     ----
             STORAGE =        8179.3672               STORAGE =        8179.3672
       CONSTANT HEAD =           0.0000         CONSTANT HEAD =           0.0000
               WELLS =        1018.8973                 WELLS =         509.4487
       RIVER LEAKAGE =       53412.1641         RIVER LEAKAGE =       30025.2441
            RECHARGE =           0.0000              RECHARGE =           0.0000

           TOTAL OUT =       62610.4297             TOTAL OUT =       38714.0586

            IN - OUT =          -0.6758              IN - OUT =          -0.6719

 PERCENT DISCREPANCY =          -0.00     PERCENT DISCREPANCY =          -0.00






         TIME SUMMARY AT END OF TIME STEP    1 IN STRESS PERIOD    2
                    SECONDS     MINUTES      HOURS       DAYS        YEARS
                    -----------------------------------------------------------
   TIME STEP LENGTH  86400.      1440.0      24.000      1.0000     2.73785E-03
 STRESS PERIOD TIME  86400.      1440.0      24.000      1.0000     2.73785E-03
         TOTAL TIME 1.72800E+05  2880.0      48.000      2.0000     5.47570E-03
1

 SOLVING FOR HEAD 

    ------------------------------------------------
       NWT REQUIRED            3 OUTER ITERATIONS 
       AND A TOTAL OF          3 INNER ITERATIONS.
    ------------------------------------------------

 OUTPUT CONTROL FOR STRESS PERIOD    2   TIME STEP    2
    SAVE HEAD FOR ALL LAYERS
    SAVE DRAWDOWN FOR ALL LAYERS
    SAVE BUDGET
    PRINT HEAD FOR ALL LAYERS
    PRINT BUDGET
1
              HEAD IN LAYER   1 AT END OF TIME STEP   2 IN STRESS PERIOD    2
  ---------------------------------------------------------------------------

            1           2           3           4           5           6           7           8           9          10
           11          12          13          14          15          16          17          18          19          20
 ........................................................................................................................
   1    0.000       0.000       0.000       0.000       0.000       10.46       10.31       10.75       11.43       11.37    
        10.12       7.251       2.161     -0.1827       5.788       21.50       31.85       37.39       0.000       0.000    
   2    0.000       0.000       0.000       0.000       8.263       7.844       7.051       7.740       9.233       9.513    
        8.645       6.469       2.515     -0.2084       8.361       23.26       33.55       39.45       0.000       0.000    
   3    0.000       0.000       0.000       6.232       5.911       4.005       3.177       3.756       5.173       5.723    
        5.372       4.326       2.726     -0.3270       14.11       26.03       36.99       43.71       0.000       0.000    
   4    0.000       0.000       3.523       3.841       2.678     -0.3150     -9.6260E-02 -0.1385     -0.3014     -0.2591    
      -0.2652     -0.2596       1.320     -0.3266       19.04       32.30       42.04       50.67       0.000       0.000    
   5    0.000       0.000      0.6340      4.0859E-02 -0.4835     -1.1011E-02   4.930       8.246       11.39       12.07    
        9.921      0.1576     -0.2709       1.311       26.07       39.60       53.30       64.37       75.30       0.000    
   6    0.000     -0.4104     -0.4514     -0.2416       2.443       10.72       16.00       19.66       22.27       23.82    
        23.56       21.51       22.93       28.11       40.91       53.35       67.71       72.80       77.75       0.000    
   7    0.000       9.731       11.31       13.16       16.29       21.29       25.69       29.09       31.12       34.11    
        35.73       36.98       39.97       45.52       54.80       65.05       74.09       80.14       0.000       0.000    
   8    0.000       15.94       20.25       22.88       25.90       29.70       33.47       36.82       39.68       42.59    
        45.19       47.97       51.87       57.47       64.94       73.11       80.60       88.69       0.000       0.000    
   9    0.000       0.000       28.00       29.67       32.24       35.45       38.85       42.15       45.29       48.41    
        51.55       55.04       59.39       64.91       71.60       78.93       86.38       94.35       102.2       107.1    
  10    0.000       0.000       31.75       33.10       35.41       38.35       41.58       44.85       48.08       51.32    
        54.71       58.49       63.01       68.49       74.89       81.88       89.10       96.34       102.7       106.4    

 HEAD WILL BE SAVED ON UNIT   51 AT END OF TIME STEP    2, STRESS PERIOD    2

 DRAWDOWN WILL BE SAVED ON UNIT   52 AT END OF TIME STEP    2, STRESS PERIOD    2
1
  VOLUMETRIC BUDGET FOR ENTIRE MODEL AT END OF TIME STEP    2, STRESS PERIOD   2
  ------------------------------------------------------------------------------

     CUMULATIVE VOLUMES      L**3       RATES FOR THIS TIME STEP      L**3/T
     ------------------                 ------------------------

           IN:                                      IN:
           ---                                      ---
             STORAGE =       10761.8975               STORAGE =        5344.6709
       CONSTANT HEAD =           0.0000         CONSTANT HEAD =           0.0000
               WELLS =           0.0000                 WELLS =           0.0000
       RIVER LEAKAGE =           0.0000         RIVER LEAKAGE =           0.0000
            RECHARGE =       90488.6875              RECHARGE =       33296.1602

            TOTAL IN =      101250.5859              TOTAL IN =       38640.8320

          OUT:                                     OUT:
          ----                                     ----
             STORAGE =       16351.6172               STORAGE =        8172.2500
       CONSTANT HEAD =           0.0000         CONSTANT HEAD =           0.0000
               WELLS =        1528.3459                 WELLS =         509.4487
       RIVER LEAKAGE =       83371.9844         RIVER LEAKAGE =       29959.8203
            RECHARGE =           0.0000              RECHARGE =           0.0000

           TOTAL OUT =      101251.9453             TOTAL OUT =       38641.5195

            IN - OUT =          -1.3594              IN - OUT =          -0.6875

 PERCENT DISCREPANCY =          -0.00     PERCENT DISCREPANCY =          -0.00






         TIME SUMMARY AT END OF TIME STEP    2 IN STRESS PERIOD    2
                    SECONDS     MINUTES      HOURS       DAYS        YEARS
                    -----------------------------------------------------------
   TIME STEP LENGTH  86400.      1440.0      24.000      1.0000     2.73785E-03
 STRESS PERIOD TIME 1.72800E+05  2880.0      48.000      2.0000     5.47570E-03
         TOTAL TIME 2.59200E+05  4320.0      72.000      3.0000     8.21355E-03
1

 SOLVING FOR HEAD 

    ------------------------------------------------
       NWT REQUIRED            3 OUTER ITERATIONS 
       AND A TOTAL OF          3 INNER ITERATIONS.
    ------------------------------------------------

 OUTPUT CONTROL FOR STRESS PERIOD    2   TIME STEP    3
    SAVE HEAD FOR ALL LAYERS
    SAVE DRAWDOWN FOR ALL LAYERS
    SAVE BUDGET
    PRINT HEAD FOR ALL LAYERS
    PRINT BUDGET
1
              HEAD IN LAYER   1 AT END OF TIME STEP   3 IN STRESS PERIOD    2
  ---------------------------------------------------------------------------

            1           2           3           4           5           6           7           8           9          10
           11          12          13          14          15          16          17          18          19          20
 ........................................................................................................................
   1    0.000       0.000       0.000       0.000       0.000       10.46       10.31       10.75       11.43       11.37    
        10.12       7.252       2.163     -0.1831       5.789       21.51       31.86       37.40       0.000       0.000    
   2    0.000       0.000       0.000       0.000       8.264       7.846       7.053       7.741       9.234       9.515    
        8.646       6.470       2.516     -0.2091       8.362       23.26       33.55       39.45       0.000       0.000    
   3    0.000       0.000       0.000       6.234       5.913       4.007       3.179       3.757       5.175       5.725    
        5.373       4.328       2.727     -0.3281       14.11       26.03       36.99       43.71       0.000       0.000    
   4    0.000       0.000       3.525       3.843       2.680     -0.3158     -9.6801E-02 -0.1393     -0.3026     -0.2601    
      -0.2662     -0.2600       1.321     -0.3280       19.04       32.30       42.04       50.67       0.000       0.000    
   5    0.000       0.000      0.6350      4.0725E-02 -0.4848     -1.1458E-02   4.931       8.247       11.39       12.07    
        9.922      0.1534     -0.2725       1.309       26.07       39.60       53.31       64.37       75.30       0.000    
   6    0.000     -0.4116     -0.4533     -0.2426       2.444       10.72       16.01       19.66       22.27       23.82    
        23.56       21.52       22.93       28.12       40.91       53.36       67.71       72.80       77.75       0.000    
   7    0.000       9.732       11.32       13.17       16.29       21.30       25.70       29.09       31.12       34.11    
        35.73       36.98       39.97       45.52       54.80       65.05       74.09       80.14       0.000       0.000    
   8    0.000       15.94       20.25       22.88       25.91       29.70       33.47       36.82       39.68       42.60    
        45.20       47.97       51.88       57.47       64.94       73.11       80.61       88.70       0.000       0.000    
   9    0.000       0.000       28.00       29.67       32.24       35.45       38.85       42.16       45.29       48.41    
        51.55       55.05       59.39       64.91       71.60       78.94       86.38       94.35       102.2       107.1    
  10    0.000       0.000       31.75       33.11       35.41       38.35       41.58       44.86       48.08       51.33    
        54.71       58.49       63.02       68.49       74.89       81.88       89.11       96.34       102.7       106.4    

 HEAD WILL BE SAVED ON UNIT   51 AT END OF TIME STEP    3, STRESS PERIOD    2

 DRAWDOWN WILL BE SAVED ON UNIT   52 AT END OF TIME STEP    3, STRESS PERIOD    2
1
  VOLUMETRIC BUDGET FOR ENTIRE MODEL AT END OF TIME STEP    3, STRESS PERIOD   2
  ------------------------------------------------------------------------------

     CUMULATIVE VOLUMES      L**3       RATES FOR THIS TIME STEP      L**3/T
     ------------------                 ------------------------

           IN:                                      IN:
           ---                                      ---
             STORAGE =       16035.3770               STORAGE =        5273.4790
       CONSTANT HEAD =           0.0000         CONSTANT HEAD =           0.0000
               WELLS =           0.0000                 WELLS =           0.0000
       RIVER LEAKAGE =           0.0000         RIVER LEAKAGE =           0.0000
            RECHARGE =      123784.8438              RECHARGE =       33296.1602

            TOTAL IN =      139820.2188              TOTAL IN =       38569.6406

          OUT:                                     OUT:
          ----                                     ----
             STORAGE =       24516.8281               STORAGE =        8165.2119
       CONSTANT HEAD =           0.0000         CONSTANT HEAD =           0.0000
               WELLS =        2037.7947                 WELLS =         509.4487
       RIVER LEAKAGE =      113267.6719         RIVER LEAKAGE =       29895.6836
            RECHARGE =           0.0000              RECHARGE =           0.0000

           TOTAL OUT =      139822.2969             TOTAL OUT =       38570.3438

            IN - OUT =          -2.0781              IN - OUT =          -0.7031

 PERCENT DISCREPANCY =          -0.00     PERCENT DISCREPANCY =          -0.00






         TIME SUMMARY AT END OF TIME STEP    3 IN STRESS PERIOD    2
                    SECONDS     MINUTES      HOURS       DAYS        YEARS
                    -----------------------------------------------------------
   TIME STEP LENGTH  86400.      1440.0      24.000      1.0000     2.73785E-03
 STRESS PERIOD TIME 2.59200E+05  4320.0      72.000      3.0000     8.21355E-03
         TOTAL TIME 3.45600E+05  5760.0      96.000      4.0000     1.09514E-02
1

 SOLVING FOR HEAD 

    ------------------------------------------------
       NWT REQUIRED            3 OUTER ITERATIONS 
       AND A TOTAL OF          3 INNER ITERATIONS.
    ------------------------------------------------

 OUTPUT CONTROL FOR STRESS PERIOD    2   TIME STEP    4
    SAVE HEAD FOR ALL LAYERS
    SAVE DRAWDOWN FOR ALL LAYERS
    SAVE BUDGET
    PRINT HEAD FOR ALL LAYERS
    PRINT BUDGET
1
              HEAD IN LAYER   1 AT END OF TIME STEP   4 IN STRESS PERIOD    2
  ---------------------------------------------------------------------------

            1           2           3           4           5           6           7           8           9          10
           11          12          13          14          15          16          17          18          19          20
 ........................................................................................................................
   1    0.000       0.000       0.000       0.000       0.000       10.46       10.31       10.75       11.43       11.37    
        10.12       7.254       2.164     -0.1836       5.791       21.51       31.86       37.40       0.000       0.000    
   2    0.000       0.000       0.000       0.000       8.266       7.848       7.054       7.743       9.236       9.516    
        8.648       6.472       2.518     -0.2097       8.364       23.26       33.55       39.45       0.000       0.000    
   3    0.000       0.000       0.000       6.235       5.914       4.008       3.180       3.759       5.176       5.726    
        5.375       4.329       2.729     -0.3292       14.11       26.03       37.00       43.71       0.000       0.000    
   4    0.000       0.000       3.526       3.844       2.681     -0.3165     -9.7339E-02 -0.1400     -0.3038     -0.2612    
      -0.2671     -0.2603       1.323     -0.3295       19.04       32.31       42.05       50.68       0.000       0.000    
   5    0.000       0.000      0.6359      4.0593E-02 -0.4861     -1.1902E-02   4.933       8.249       11.40       12.07    
        9.924      0.1494     -0.2741       1.307       26.07       39.60       53.31       64.38       75.30       0.000    
   6    0.000     -0.4128     -0.4551     -0.2435       2.444       10.72       16.01       19.66       22.27       23.82    
        23.57       21.52       22.93       28.12       40.91       53.36       67.71       72.80       77.75       0.000    
   7    0.000       9.734       11.32       13.17       16.29       21.30       25.70       29.09       31.12       34.11    
        35.73       36.98       39.97       45.52       54.80       65.05       74.09       80.15       0.000       0.000    
   8    0.000       15.94       20.25       22.89       25.91       29.70       33.47       36.83       39.68       42.60    
        45.20       47.97       51.88       57.47       64.94       73.11       80.61       88.70       0.000       0.000    
   9    0.000       0.000       28.00       29.68       32.24       35.45       38.85       42.16       45.29       48.41    
        51.55       55.05       59.39       64.91       71.60       78.94       86.38       94.35       102.2       107.1    
  10    0.000       0.000       31.76       33.11       35.42       38.36       41.59       44.86       48.08       51.33    
        54.71       58.49       63.02       68.49       74.89       81.88       89.11       96.34       102.7       106.4    

 HEAD WILL BE SAVED ON UNIT   51 AT END OF TIME STEP    4, STRESS PERIOD    2

 DRAWDOWN WILL BE SAVED ON UNIT   52 AT END OF TIME STEP    4, STRESS PERIOD    2
1
  VOLUMETRIC BUDGET FOR ENTIRE MODEL AT END OF TIME STEP    4, STRESS PERIOD   2
  ------------------------------------------------------------------------------

     CUMULATIVE VOLUMES      L**3       RATES FOR THIS TIME STEP      L**3/T
     ------------------                 ------------------------

           IN:                                      IN:
           ---                                      ---
             STORAGE =       21238.9844               STORAGE =        5203.6084
       CONSTANT HEAD =           0.0000         CONSTANT HEAD =           0.0000
               WELLS =           0.0000                 WELLS =           0.0000
       RIVER LEAKAGE =           0.0000         RIVER LEAKAGE =           0.0000
            RECHARGE =      157081.0000              RECHARGE =       33296.1602

            TOTAL IN =      178319.9844              TOTAL IN =       38499.7695

          OUT:                                     OUT:
          ----                                     ----
             STORAGE =       32675.0781               STORAGE =        8158.2500
       CONSTANT HEAD =           0.0000         CONSTANT HEAD =           0.0000
               WELLS =        2547.2434                 WELLS =         509.4487
       RIVER LEAKAGE =      143100.4688         RIVER LEAKAGE =       29832.7910
            RECHARGE =           0.0000              RECHARGE =           0.0000

           TOTAL OUT =      178322.7812             TOTAL OUT =       38500.4883

            IN - OUT =          -2.7969              IN - OUT =          -0.7188

 PERCENT DISCREPANCY =          -0.00     PERCENT DISCREPANCY =          -0.00






         TIME SUMMARY AT END OF TIME STEP    4 IN STRESS PERIOD    2
                    SECONDS     MINUTES      HOURS       DAYS        YEARS
                    -----------------------------------------------------------
   TIME STEP LENGTH  86400.      1440.0      24.000      1.0000     2.73785E-03
 STRESS PERIOD TIME 3.45600E+05  5760.0      96.000      4.0000     1.09514E-02
         TOTAL TIME 4.32000E+05  7200.0      120.00      5.0000     1.36893E-02
1

 SOLVING FOR HEAD 

    ------------------------------------------------
       NWT REQUIRED            3 OUTER ITERATIONS 
       AND A TOTAL OF          3 INNER ITERATIONS.
    ------------------------------------------------

 OUTPUT CONTROL FOR STRESS PERIOD    2   TIME STEP    5
    SAVE HEAD FOR ALL LAYERS
    SAVE DRAWDOWN FOR ALL LAYERS
    SAVE BUDGET
    PRINT HEAD FOR ALL LAYERS
    PRINT BUDGET
1
              HEAD IN LAYER   1 AT END OF TIME STEP   5 IN STRESS PERIOD    2
  ---------------------------------------------------------------------------

            1           2           3           4           5           6           7           8           9          10
           11          12          13          14          15          16          17          18          19          20
 ........................................................................................................................
   1    0.000       0.000       0.000       0.000       0.000       10.46       10.32       10.75       11.44       11.37    
        10.12       7.255       2.166     -0.1841       5.792       21.51       31.86       37.40       0.000       0.000    
   2    0.000       0.000       0.000       0.000       8.267       7.849       7.056       7.744       9.237       9.518    
        8.650       6.473       2.519     -0.2104       8.365       23.26       33.55       39.46       0.000       0.000    
   3    0.000       0.000       0.000       6.237       5.916       4.010       3.182       3.760       5.178       5.728    
        5.376       4.331       2.730     -0.3304       14.12       26.03       37.00       43.72       0.000       0.000    
   4    0.000       0.000       3.528       3.846       2.683     -0.3173     -9.7872E-02 -0.1408     -0.3049     -0.2622    
      -0.2680     -0.2607       1.324     -0.3309       19.05       32.31       42.05       50.68       0.000       0.000    
   5    0.000       0.000      0.6368      4.0465E-02 -0.4873     -1.2343E-02   4.934       8.250       11.40       12.07    
        9.925      0.1456     -0.2757       1.305       26.07       39.60       53.31       64.38       75.30       0.000    
   6    0.000     -0.4140     -0.4569     -0.2445       2.444       10.72       16.01       19.66       22.27       23.82    
        23.57       21.52       22.93       28.12       40.91       53.36       67.72       72.80       77.76       0.000    
   7    0.000       9.735       11.32       13.17       16.29       21.30       25.70       29.09       31.12       34.12    
        35.73       36.98       39.98       45.52       54.80       65.05       74.10       80.15       0.000       0.000    
   8    0.000       15.95       20.25       22.89       25.91       29.70       33.47       36.83       39.68       42.60    
        45.20       47.98       51.88       57.47       64.94       73.11       80.61       88.70       0.000       0.000    
   9    0.000       0.000       28.00       29.68       32.25       35.45       38.85       42.16       45.29       48.41    
        51.55       55.05       59.39       64.91       71.61       78.94       86.38       94.35       102.2       107.1    
  10    0.000       0.000       31.76       33.11       35.42       38.36       41.59       44.86       48.08       51.33    
        54.71       58.50       63.02       68.50       74.89       81.89       89.11       96.35       102.7       106.4    

 HEAD WILL BE SAVED ON UNIT   51 AT END OF TIME STEP    5, STRESS PERIOD    2

 DRAWDOWN WILL BE SAVED ON UNIT   52 AT END OF TIME STEP    5, STRESS PERIOD    2
1
  VOLUMETRIC BUDGET FOR ENTIRE MODEL AT END OF TIME STEP    5, STRESS PERIOD   2
  ------------------------------------------------------------------------------

     CUMULATIVE VOLUMES      L**3       RATES FOR THIS TIME STEP      L**3/T
     ------------------                 ------------------------

           IN:                                      IN:
           ---                                      ---
             STORAGE =       26374.0039               STORAGE =        5135.0200
       CONSTANT HEAD =           0.0000         CONSTANT HEAD =           0.0000
               WELLS =           0.0000                 WELLS =           0.0000
       RIVER LEAKAGE =           0.0000         RIVER LEAKAGE =           0.0000
            RECHARGE =      190377.1562              RECHARGE =       33296.1602

            TOTAL IN =      216751.1562              TOTAL IN =       38431.1797

          OUT:                                     OUT:
          ----                                     ----
             STORAGE =       40826.4414               STORAGE =        8151.3618
       CONSTANT HEAD =           0.0000         CONSTANT HEAD =           0.0000
               WELLS =        3056.6921                 WELLS =         509.4487
       RIVER LEAKAGE =      172871.5781         RIVER LEAKAGE =       29771.1074
            RECHARGE =           0.0000              RECHARGE =           0.0000

           TOTAL OUT =      216754.7188             TOTAL OUT =       38431.9180

            IN - OUT =          -3.5625              IN - OUT =          -0.7383

 PERCENT DISCREPANCY =          -0.00     PERCENT DISCREPANCY =          -0.00






         TIME SUMMARY AT END OF TIME STEP    5 IN STRESS PERIOD    2
                    SECONDS     MINUTES      HOURS       DAYS        YEARS
                    -----------------------------------------------------------
   TIME STEP LENGTH  86400.      1440.0      24.000      1.0000     2.73785E-03
 STRESS PERIOD TIME 4.32000E+05  7200.0      120.00      5.0000     1.36893E-02
         TOTAL TIME 5.18400E+05  8640.0      144.00      6.0000     1.64271E-02
1

 SOLVING FOR HEAD 

    ------------------------------------------------
       NWT REQUIRED            3 OUTER ITERATIONS 
       AND A TOTAL OF          3 INNER ITERATIONS.
    ------------------------------------------------

 OUTPUT CONTROL FOR STRESS PERIOD    2   TIME STEP    6
    SAVE HEAD FOR ALL LAYERS
    SAVE DRAWDOWN FOR ALL LAYERS
    SAVE BUDGET
    PRINT HEAD FOR ALL LAYERS
    PRINT BUDGET
1
              HEAD IN LAYER   1 AT END OF TIME STEP   6 IN STRESS PERIOD    2
  ---------------------------------------------------------------------------

            1           2           3           4           5           6           7           8           9          10
           11          12          13          14          15          16          17          18          19          20
 ........................................................................................................................
   1    0.000       0.000       0.000       0.000       0.000       10.46       10.32       10.75       11.44       11.37    
        10.13       7.257       2.167     -0.1845       5.794       21.51       31.86       37.40       0.000       0.000    
   2    0.000       0.000       0.000       0.000       8.269       7.851       7.057       7.746       9.239       9.520    
        8.651       6.475       2.521     -0.2111       8.367       23.27       33.56       39.46       0.000       0.000    
   3    0.000       0.000       0.000       6.238       5.917       4.011       3.183       3.762       5.180       5.729    
        5.378       4.332       2.732     -0.3315       14.12       26.04       37.00       43.72       0.000       0.000    
   4    0.000       0.000       3.529       3.847       2.684     -0.3181     -9.8401E-02 -0.1415     -0.3060     -0.2633    
      -0.2689     -0.2611       1.326     -0.3323       19.05       32.31       42.05       50.68       0.000       0.000    
   5    0.000       0.000      0.6378      4.0339E-02 -0.4886     -1.2782E-02   4.936       8.252       11.40       12.07    
        9.927      0.1420     -0.2772       1.302       26.07       39.60       53.31       64.38       75.30       0.000    
   6    0.000     -0.4152     -0.4586     -0.2454       2.445       10.72       16.01       19.66       22.27       23.82    
        23.57       21.52       22.93       28.12       40.91       53.36       67.72       72.80       77.76       0.000    
   7    0.000       9.737       11.32       13.17       16.29       21.30       25.70       29.10       31.13       34.12    
        35.73       36.98       39.98       45.53       54.81       65.05       74.10       80.15       0.000       0.000    
   8    0.000       15.95       20.25       22.89       25.91       29.70       33.47       36.83       39.68       42.60    
        45.20       47.98       51.88       57.48       64.94       73.12       80.61       88.70       0.000       0.000    
   9    0.000       0.000       28.01       29.68       32.25       35.45       38.85       42.16       45.29       48.41    
        51.56       55.05       59.39       64.92       71.61       78.94       86.38       94.35       102.2       107.1    
  10    0.000       0.000       31.76       33.11       35.42       38.36       41.59       44.86       48.09       51.33    
        54.71       58.50       63.02       68.50       74.89       81.89       89.11       96.35       102.7       106.4    

 HEAD WILL BE SAVED ON UNIT   51 AT END OF TIME STEP    6, STRESS PERIOD    2

 DRAWDOWN WILL BE SAVED ON UNIT   52 AT END OF TIME STEP    6, STRESS PERIOD    2
1
  VOLUMETRIC BUDGET FOR ENTIRE MODEL AT END OF TIME STEP    6, STRESS PERIOD   2
  ------------------------------------------------------------------------------

     CUMULATIVE VOLUMES      L**3       RATES FOR THIS TIME STEP      L**3/T
     ------------------                 ------------------------

           IN:                                      IN:
           ---                                      ---
             STORAGE =       31441.6797               STORAGE =        5067.6748
       CONSTANT HEAD =           0.0000         CONSTANT HEAD =           0.0000
               WELLS =           0.0000                 WELLS =           0.0000
       RIVER LEAKAGE =           0.0000         RIVER LEAKAGE =           0.0000
            RECHARGE =      223673.3125              RECHARGE =       33296.1602

            TOTAL IN =      255115.0000              TOTAL IN =       38363.8359

          OUT:                                     OUT:
          ----                                     ----
             STORAGE =       48970.9883               STORAGE =        8144.5454
       CONSTANT HEAD =           0.0000         CONSTANT HEAD =           0.0000
               WELLS =        3566.1409                 WELLS =         509.4487
       RIVER LEAKAGE =      202582.1719         RIVER LEAKAGE =       29710.5938
            RECHARGE =           0.0000              RECHARGE =           0.0000

           TOTAL OUT =      255119.2969             TOTAL OUT =       38364.5859

            IN - OUT =          -4.2969              IN - OUT =          -0.7500

 PERCENT DISCREPANCY =          -0.00     PERCENT DISCREPANCY =          -0.00






         TIME SUMMARY AT END OF TIME STEP    6 IN STRESS PERIOD    2
                    SECONDS     MINUTES      HOURS       DAYS        YEARS
                    -----------------------------------------------------------
   TIME STEP LENGTH  86400.      1440.0      24.000      1.0000     2.73785E-03
 STRESS PERIOD TIME 5.18400E+05  8640.0      144.00      6.0000     1.64271E-02
         TOTAL TIME 6.04800E+05  10080.      168.00      7.0000     1.91650E-02
1

 SOLVING FOR HEAD 

    ------------------------------------------------
       NWT REQUIRED            3 OUTER ITERATIONS 
       AND A TOTAL OF          3 INNER ITERATIONS.
    ------------------------------------------------

 OUTPUT CONTROL FOR STRESS PERIOD    2   TIME STEP    7
    SAVE HEAD FOR ALL LAYERS
    SAVE DRAWDOWN FOR ALL LAYERS
    SAVE BUDGET
    PRINT HEAD FOR ALL LAYERS
    PRINT BUDGET
1
              HEAD IN LAYER   1 AT END OF TIME STEP   7 IN STRESS PERIOD    2
  ---------------------------------------------------------------------------

            1           2           3           4           5           6           7           8           9          10
           11          12          13          14          15          16          17          18          19          20
 ........................................................................................................................
   1    0.000       0.000       0.000       0.000       0.000       10.46       10.32       10.76       11.44       11.37    
        10.13       7.258       2.169     -0.1850       5.795       21.51       31.86       37.40       0.000       0.000    
   2    0.000       0.000       0.000       0.000       8.270       7.852       7.059       7.747       9.240       9.521    
        8.653       6.476       2.522     -0.2117       8.368       23.27       33.56       39.46       0.000       0.000    
   3    0.000       0.000       0.000       6.240       5.919       4.013       3.184       3.763       5.181       5.731    
        5.379       4.334       2.733     -0.3325       14.12       26.04       37.00       43.72       0.000       0.000    
   4    0.000       0.000       3.531       3.849       2.686     -0.3188     -9.8926E-02 -0.1423     -0.3071     -0.2643    
      -0.2698     -0.2614       1.327     -0.3336       19.05       32.31       42.05       50.68       0.000       0.000    
   5    0.000       0.000      0.6387      4.0216E-02 -0.4898     -1.3217E-02   4.937       8.253       11.40       12.07    
        9.928      0.1386     -0.2788       1.300       26.08       39.60       53.31       64.38       75.30       0.000    
   6    0.000     -0.4163     -0.4603     -0.2463       2.445       10.73       16.01       19.66       22.28       23.82    
        23.57       21.52       22.93       28.12       40.91       53.36       67.72       72.80       77.76       0.000    
   7    0.000       9.738       11.32       13.17       16.29       21.30       25.70       29.10       31.13       34.12    
        35.73       36.99       39.98       45.53       54.81       65.06       74.10       80.15       0.000       0.000    
   8    0.000       15.95       20.26       22.89       25.91       29.71       33.48       36.83       39.68       42.60    
        45.20       47.98       51.88       57.48       64.95       73.12       80.61       88.70       0.000       0.000    
   9    0.000       0.000       28.01       29.68       32.25       35.45       38.85       42.16       45.30       48.41    
        51.56       55.05       59.40       64.92       71.61       78.94       86.39       94.36       102.2       107.1    
  10    0.000       0.000       31.76       33.11       35.42       38.36       41.59       44.86       48.09       51.33    
        54.72       58.50       63.02       68.50       74.90       81.89       89.11       96.35       102.7       106.4    

 HEAD WILL BE SAVED ON UNIT   51 AT END OF TIME STEP    7, STRESS PERIOD    2

 DRAWDOWN WILL BE SAVED ON UNIT   52 AT END OF TIME STEP    7, STRESS PERIOD    2
1
  VOLUMETRIC BUDGET FOR ENTIRE MODEL AT END OF TIME STEP    7, STRESS PERIOD   2
  ------------------------------------------------------------------------------

     CUMULATIVE VOLUMES      L**3       RATES FOR THIS TIME STEP      L**3/T
     ------------------                 ------------------------

           IN:                                      IN:
           ---                                      ---
             STORAGE =       36443.2148               STORAGE =        5001.5366
       CONSTANT HEAD =           0.0000         CONSTANT HEAD =           0.0000
               WELLS =           0.0000                 WELLS =           0.0000
       RIVER LEAKAGE =           0.0000         RIVER LEAKAGE =           0.0000
            RECHARGE =      256969.4688              RECHARGE =       33296.1602

            TOTAL IN =      293412.6875              TOTAL IN =       38297.6953

          OUT:                                     OUT:
          ----                                     ----
             STORAGE =       57108.7891               STORAGE =        8137.7993
       CONSTANT HEAD =           0.0000         CONSTANT HEAD =           0.0000
               WELLS =        4075.5896                 WELLS =         509.4487
       RIVER LEAKAGE =      232233.3906         RIVER LEAKAGE =       29651.2168
            RECHARGE =           0.0000              RECHARGE =           0.0000

           TOTAL OUT =      293417.7812             TOTAL OUT =       38298.4648

            IN - OUT =          -5.0938              IN - OUT =          -0.7695

 PERCENT DISCREPANCY =          -0.00     PERCENT DISCREPANCY =          -0.00






         TIME SUMMARY AT END OF TIME STEP    7 IN STRESS PERIOD    2
                    SECONDS     MINUTES      HOURS       DAYS        YEARS
                    -----------------------------------------------------------
   TIME STEP LENGTH  86400.      1440.0      24.000      1.0000     2.73785E-03
 STRESS PERIOD TIME 6.04800E+05  10080.      168.00      7.0000     1.91650E-02
         TOTAL TIME 6.91200E+05  11520.      192.00      8.0000     2.19028E-02
1

 SOLVING FOR HEAD 

    ------------------------------------------------
       NWT REQUIRED            3 OUTER ITERATIONS 
       AND A TOTAL OF          3 INNER ITERATIONS.
    ------------------------------------------------

 OUTPUT CONTROL FOR STRESS PERIOD    2   TIME STEP    8
    SAVE HEAD FOR ALL LAYERS
    SAVE DRAWDOWN FOR ALL LAYERS
    SAVE BUDGET
    PRINT HEAD FOR ALL LAYERS
    PRINT BUDGET
1
              HEAD IN LAYER   1 AT END OF TIME STEP   8 IN STRESS PERIOD    2
  ---------------------------------------------------------------------------

            1           2           3           4           5           6           7           8           9          10
           11          12          13          14          15          16          17          18          19          20
 ........................................................................................................................
   1    0.000       0.000       0.000       0.000       0.000       10.47       10.32       10.76       11.44       11.37    
        10.13       7.260       2.170     -0.1855       5.797       21.51       31.86       37.40       0.000       0.000    
   2    0.000       0.000       0.000       0.000       8.272       7.854       7.061       7.749       9.242       9.523    
        8.654       6.478       2.524     -0.2124       8.370       23.27       33.56       39.46       0.000       0.000    
   3    0.000       0.000       0.000       6.241       5.920       4.014       3.186       3.765       5.183       5.732    
        5.381       4.335       2.735     -0.3336       14.12       26.04       37.00       43.72       0.000       0.000    
   4    0.000       0.000       3.532       3.851       2.687     -0.3196     -9.9448E-02 -0.1430     -0.3082     -0.2653    
      -0.2707     -0.2618       1.329     -0.3350       19.05       32.31       42.05       50.68       0.000       0.000    
   5    0.000       0.000      0.6396      4.0096E-02 -0.4910     -1.3650E-02   4.939       8.255       11.40       12.07    
        9.930      0.1354     -0.2802       1.298       26.08       39.60       53.31       64.38       75.31       0.000    
   6    0.000     -0.4174     -0.4620     -0.2472       2.446       10.73       16.01       19.66       22.28       23.83    
        23.57       21.52       22.94       28.12       40.91       53.36       67.72       72.81       77.76       0.000    
   7    0.000       9.740       11.32       13.17       16.29       21.30       25.70       29.10       31.13       34.12    
        35.73       36.99       39.98       45.53       54.81       65.06       74.10       80.15       0.000       0.000    
   8    0.000       15.95       20.26       22.89       25.91       29.71       33.48       36.83       39.68       42.60    
        45.20       47.98       51.88       57.48       64.95       73.12       80.61       88.70       0.000       0.000    
   9    0.000       0.000       28.01       29.68       32.25       35.45       38.86       42.16       45.30       48.42    
        51.56       55.05       59.40       64.92       71.61       78.94       86.39       94.36       102.2       107.1    
  10    0.000       0.000       31.76       33.11       35.42       38.36       41.59       44.86       48.09       51.33    
        54.72       58.50       63.02       68.50       74.90       81.89       89.11       96.35       102.7       106.4    

 HEAD WILL BE SAVED ON UNIT   51 AT END OF TIME STEP    8, STRESS PERIOD    2

 DRAWDOWN WILL BE SAVED ON UNIT   52 AT END OF TIME STEP    8, STRESS PERIOD    2
1
  VOLUMETRIC BUDGET FOR ENTIRE MODEL AT END OF TIME STEP    8, STRESS PERIOD   2
  ------------------------------------------------------------------------------

     CUMULATIVE VOLUMES      L**3       RATES FOR THIS TIME STEP      L**3/T
     ------------------                 ------------------------

           IN:                                      IN:
           ---                                      ---
             STORAGE =       41379.7852               STORAGE =        4936.5703
       CONSTANT HEAD =           0.0000         CONSTANT HEAD =           0.0000
               WELLS =           0.0000                 WELLS =           0.0000
       RIVER LEAKAGE =           0.0000         RIVER LEAKAGE =           0.0000
            RECHARGE =      290265.6250              RECHARGE =       33296.1602

            TOTAL IN =      331645.4062              TOTAL IN =       38232.7305

          OUT:                                     OUT:
          ----                                     ----
             STORAGE =       65239.9102               STORAGE =        8131.1216
       CONSTANT HEAD =           0.0000         CONSTANT HEAD =           0.0000
               WELLS =        4585.0381                 WELLS =         509.4487
       RIVER LEAKAGE =      261826.3281         RIVER LEAKAGE =       29592.9434
            RECHARGE =           0.0000              RECHARGE =           0.0000

           TOTAL OUT =      331651.2812             TOTAL OUT =       38233.5156

            IN - OUT =          -5.8750              IN - OUT =          -0.7852

 PERCENT DISCREPANCY =          -0.00     PERCENT DISCREPANCY =          -0.00






         TIME SUMMARY AT END OF TIME STEP    8 IN STRESS PERIOD    2
                    SECONDS     MINUTES      HOURS       DAYS        YEARS
                    -----------------------------------------------------------
   TIME STEP LENGTH  86400.      1440.0      24.000      1.0000     2.73785E-03
 STRESS PERIOD TIME 6.91200E+05  11520.      192.00      8.0000     2.19028E-02
         TOTAL TIME 7.77600E+05  12960.      216.00      9.0000     2.46407E-02
1

 SOLVING FOR HEAD 

    ------------------------------------------------
       NWT REQUIRED            3 OUTER ITERATIONS 
       AND A TOTAL OF          3 INNER ITERATIONS.
    ------------------------------------------------

 OUTPUT CONTROL FOR STRESS PERIOD    2   TIME STEP    9
    SAVE HEAD FOR ALL LAYERS
    SAVE DRAWDOWN FOR ALL LAYERS
    SAVE BUDGET
    PRINT HEAD FOR ALL LAYERS
    PRINT BUDGET
1
              HEAD IN LAYER   1 AT END OF TIME STEP   9 IN STRESS PERIOD    2
  ---------------------------------------------------------------------------

            1           2           3           4           5           6           7           8           9          10
           11          12          13          14          15          16          17          18          19          20
 ........................................................................................................................
   1    0.000       0.000       0.000       0.000       0.000       10.47       10.32       10.76       11.44       11.38    
        10.13       7.261       2.172     -0.1859       5.798       21.52       31.87       37.40       0.000       0.000    
   2    0.000       0.000       0.000       0.000       8.273       7.855       7.062       7.750       9.243       9.524    
        8.656       6.480       2.525     -0.2130       8.371       23.27       33.56       39.46       0.000       0.000    
   3    0.000       0.000       0.000       6.243       5.922       4.016       3.187       3.766       5.184       5.734    
        5.382       4.337       2.736     -0.3347       14.12       26.04       37.00       43.72       0.000       0.000    
   4    0.000       0.000       3.534       3.852       2.689     -0.3203     -9.9965E-02 -0.1438     -0.3093     -0.2663    
      -0.2716     -0.2621       1.330     -0.3363       19.05       32.31       42.05       50.68       0.000       0.000    
   5    0.000       0.000      0.6404      3.9979E-02 -0.4922     -1.4080E-02   4.940       8.256       11.40       12.08    
        9.931      0.1324     -0.2817       1.297       26.08       39.61       53.32       64.38       75.31       0.000    
   6    0.000     -0.4185     -0.4637     -0.2481       2.446       10.73       16.01       19.67       22.28       23.83    
        23.57       21.52       22.94       28.12       40.92       53.37       67.72       72.81       77.76       0.000    
   7    0.000       9.741       11.33       13.17       16.30       21.30       25.71       29.10       31.13       34.12    
        35.74       36.99       39.98       45.53       54.81       65.06       74.10       80.15       0.000       0.000    
   8    0.000       15.95       20.26       22.89       25.91       29.71       33.48       36.83       39.69       42.60    
        45.21       47.98       51.88       57.48       64.95       73.12       80.62       88.71       0.000       0.000    
   9    0.000       0.000       28.01       29.68       32.25       35.46       38.86       42.17       45.30       48.42    
        51.56       55.05       59.40       64.92       71.61       78.94       86.39       94.36       102.2       107.1    
  10    0.000       0.000       31.76       33.11       35.42       38.36       41.59       44.86       48.09       51.34    
        54.72       58.50       63.03       68.50       74.90       81.89       89.12       96.35       102.7       106.4    

 HEAD WILL BE SAVED ON UNIT   51 AT END OF TIME STEP    9, STRESS PERIOD    2

 DRAWDOWN WILL BE SAVED ON UNIT   52 AT END OF TIME STEP    9, STRESS PERIOD    2
1
  VOLUMETRIC BUDGET FOR ENTIRE MODEL AT END OF TIME STEP    9, STRESS PERIOD   2
  ------------------------------------------------------------------------------

     CUMULATIVE VOLUMES      L**3       RATES FOR THIS TIME STEP      L**3/T
     ------------------                 ------------------------

           IN:                                      IN:
           ---                                      ---
             STORAGE =       46252.5273               STORAGE =        4872.7427
       CONSTANT HEAD =           0.0000         CONSTANT HEAD =           0.0000
               WELLS =           0.0000                 WELLS =           0.0000
       RIVER LEAKAGE =           0.0000         RIVER LEAKAGE =           0.0000
            RECHARGE =      323561.7812              RECHARGE =       33296.1602

            TOTAL IN =      369814.3125              TOTAL IN =       38168.9023

          OUT:                                     OUT:
          ----                                     ----
             STORAGE =       73364.4219               STORAGE =        8124.5103
       CONSTANT HEAD =           0.0000         CONSTANT HEAD =           0.0000
               WELLS =        5094.4868                 WELLS =         509.4487
       RIVER LEAKAGE =      291362.0625         RIVER LEAKAGE =       29535.7402
            RECHARGE =           0.0000              RECHARGE =           0.0000

           TOTAL OUT =      369820.9688             TOTAL OUT =       38169.6992

            IN - OUT =          -6.6562              IN - OUT =          -0.7969

 PERCENT DISCREPANCY =          -0.00     PERCENT DISCREPANCY =          -0.00






         TIME SUMMARY AT END OF TIME STEP    9 IN STRESS PERIOD    2
                    SECONDS     MINUTES      HOURS       DAYS        YEARS
                    -----------------------------------------------------------
   TIME STEP LENGTH  86400.      1440.0      24.000      1.0000     2.73785E-03
 STRESS PERIOD TIME 7.77600E+05  12960.      216.00      9.0000     2.46407E-02
         TOTAL TIME 8.64000E+05  14400.      240.00      10.000     2.73785E-02
1

 SOLVING FOR HEAD 

    ------------------------------------------------
       NWT REQUIRED            3 OUTER ITERATIONS 
       AND A TOTAL OF          3 INNER ITERATIONS.
    ------------------------------------------------

 OUTPUT CONTROL FOR STRESS PERIOD    2   TIME STEP   10
    SAVE HEAD FOR ALL LAYERS
    SAVE DRAWDOWN FOR ALL LAYERS
    SAVE BUDGET
    PRINT HEAD FOR ALL LAYERS
    PRINT BUDGET
1
              HEAD IN LAYER   1 AT END OF TIME STEP  10 IN STRESS PERIOD    2
  ---------------------------------------------------------------------------

            1           2           3           4           5           6           7           8           9          10
           11          12          13          14          15          16          17          18          19          20
 ........................................................................................................................
   1    0.000       0.000       0.000       0.000       0.000       10.47       10.32       10.76       11.44       11.38    
        10.13       7.263       2.173     -0.1864       5.800       21.52       31.87       37.41       0.000       0.000    
   2    0.000       0.000       0.000       0.000       8.275       7.857       7.064       7.752       9.245       9.526    
        8.657       6.481       2.527     -0.2136       8.373       23.27       33.56       39.46       0.000       0.000    
   3    0.000       0.000       0.000       6.244       5.923       4.017       3.189       3.767       5.186       5.735    
        5.384       4.338       2.738     -0.3357       14.12       26.04       37.00       43.72       0.000       0.000    
   4    0.000       0.000       3.535       3.854       2.690     -0.3210     -0.1005     -0.1445     -0.3104     -0.2672    
      -0.2725     -0.2624       1.332     -0.3376       19.05       32.31       42.06       50.68       0.000       0.000    
   5    0.000       0.000      0.6413      3.9865E-02 -0.4934     -1.4507E-02   4.942       8.258       11.40       12.08    
        9.933      0.1295     -0.2832       1.295       26.08       39.61       53.32       64.39       75.31       0.000    
   6    0.000     -0.4196     -0.4653     -0.2490       2.447       10.73       16.02       19.67       22.28       23.83    
        23.57       21.53       22.94       28.13       40.92       53.37       67.72       72.81       77.76       0.000    
   7    0.000       9.743       11.33       13.18       16.30       21.31       25.71       29.10       31.13       34.12    
        35.74       36.99       39.98       45.53       54.81       65.06       74.10       80.15       0.000       0.000    
   8    0.000       15.95       20.26       22.89       25.92       29.71       33.48       36.83       39.69       42.61    
        45.21       47.98       51.89       57.48       64.95       73.12       80.62       88.71       0.000       0.000    
   9    0.000       0.000       28.01       29.69       32.25       35.46       38.86       42.17       45.30       48.42    
        51.56       55.06       59.40       64.92       71.61       78.95       86.39       94.36       102.2       107.1    
  10    0.000       0.000       31.77       33.12       35.43       38.37       41.59       44.87       48.09       51.34    
        54.72       58.50       63.03       68.50       74.90       81.89       89.12       96.35       102.7       106.4    

 HEAD WILL BE SAVED ON UNIT   51 AT END OF TIME STEP   10, STRESS PERIOD    2

 DRAWDOWN WILL BE SAVED ON UNIT   52 AT END OF TIME STEP   10, STRESS PERIOD    2
1
  VOLUMETRIC BUDGET FOR ENTIRE MODEL AT END OF TIME STEP   10, STRESS PERIOD   2
  ------------------------------------------------------------------------------

     CUMULATIVE VOLUMES      L**3       RATES FOR THIS TIME STEP      L**3/T
     ------------------                 ------------------------

           IN:                                      IN:
           ---                                      ---
             STORAGE =       51062.5469               STORAGE =        4810.0210
       CONSTANT HEAD =           0.0000         CONSTANT HEAD =           0.0000
               WELLS =           0.0000                 WELLS =           0.0000
       RIVER LEAKAGE =           0.0000         RIVER LEAKAGE =           0.0000
            RECHARGE =      356857.9375              RECHARGE =       33296.1602

            TOTAL IN =      407920.5000              TOTAL IN =       38106.1797

          OUT:                                     OUT:
          ----                                     ----
             STORAGE =       81482.3828               STORAGE =        8117.9634
       CONSTANT HEAD =           0.0000         CONSTANT HEAD =           0.0000
               WELLS =        5603.9355                 WELLS =         509.4487
       RIVER LEAKAGE =      320841.6562         RIVER LEAKAGE =       29479.5801
            RECHARGE =           0.0000              RECHARGE =           0.0000

           TOTAL OUT =      407927.9688             TOTAL OUT =       38106.9922

            IN - OUT =          -7.4688              IN - OUT =          -0.8125

 PERCENT DISCREPANCY =          -0.00     PERCENT DISCREPANCY =          -0.00






         TIME SUMMARY AT END OF TIME STEP   10 IN STRESS PERIOD    2
                    SECONDS     MINUTES      HOURS       DAYS        YEARS
                    -----------------------------------------------------------
   TIME STEP LENGTH  86400.      1440.0      24.000      1.0000     2.73785E-03
 STRESS PERIOD TIME 8.64000E+05  14400.      240.00      10.000     2.73785E-02
         TOTAL TIME 9.50400E+05  15840.      264.00      11.000     3.01164E-02
1

 SOLVING FOR HEAD 

    ------------------------------------------------
       NWT REQUIRED            3 OUTER ITERATIONS 
       AND A TOTAL OF          3 INNER ITERATIONS.
    ------------------------------------------------

 OUTPUT CONTROL FOR STRESS PERIOD    2   TIME STEP   11
    SAVE HEAD FOR ALL LAYERS
    SAVE DRAWDOWN FOR ALL LAYERS
    SAVE BUDGET
    PRINT HEAD FOR ALL LAYERS
    PRINT BUDGET
1
              HEAD IN LAYER   1 AT END OF TIME STEP  11 IN STRESS PERIOD    2
  ---------------------------------------------------------------------------

            1           2           3           4           5           6           7           8           9          10
           11          12          13          14          15          16          17          18          19          20
 ........................................................................................................................
   1    0.000       0.000       0.000       0.000       0.000       10.47       10.33       10.76       11.45       11.38    
        10.13       7.264       2.175     -0.1868       5.801       21.52       31.87       37.41       0.000       0.000    
   2    0.000       0.000       0.000       0.000       8.277       7.858       7.065       7.753       9.247       9.527    
        8.659       6.483       2.528     -0.2143       8.374       23.27       33.56       39.47       0.000       0.000    
   3    0.000       0.000       0.000       6.246       5.925       4.019       3.190       3.769       5.187       5.737    
        5.385       4.340       2.739     -0.3368       14.13       26.04       37.01       43.73       0.000       0.000    
   4    0.000       0.000       3.537       3.855       2.692     -0.3218     -0.1010     -0.1452     -0.3115     -0.2682    
      -0.2733     -0.2628       1.333     -0.3389       19.06       32.32       42.06       50.69       0.000       0.000    
   5    0.000       0.000      0.6422      3.9753E-02 -0.4945     -1.4931E-02   4.943       8.259       11.41       12.08    
        9.934      0.1268     -0.2846       1.293       26.08       39.61       53.32       64.39       75.31       0.000    
   6    0.000     -0.4207     -0.4669     -0.2499       2.447       10.73       16.02       19.67       22.28       23.83    
        23.58       21.53       22.94       28.13       40.92       53.37       67.73       72.81       77.76       0.000    
   7    0.000       9.744       11.33       13.18       16.30       21.31       25.71       29.10       31.13       34.13    
        35.74       36.99       39.99       45.53       54.81       65.06       74.11       80.16       0.000       0.000    
   8    0.000       15.95       20.26       22.90       25.92       29.71       33.48       36.84       39.69       42.61    
        45.21       47.99       51.89       57.48       64.95       73.12       80.62       88.71       0.000       0.000    
   9    0.000       0.000       28.01       29.69       32.26       35.46       38.86       42.17       45.30       48.42    
        51.56       55.06       59.40       64.92       71.61       78.95       86.39       94.36       102.2       107.1    
  10    0.000       0.000       31.77       33.12       35.43       38.37       41.60       44.87       48.09       51.34    
        54.72       58.51       63.03       68.51       74.90       81.89       89.12       96.36       102.7       106.4    

 HEAD WILL BE SAVED ON UNIT   51 AT END OF TIME STEP   11, STRESS PERIOD    2

 DRAWDOWN WILL BE SAVED ON UNIT   52 AT END OF TIME STEP   11, STRESS PERIOD    2
1
  VOLUMETRIC BUDGET FOR ENTIRE MODEL AT END OF TIME STEP   11, STRESS PERIOD   2
  ------------------------------------------------------------------------------

     CUMULATIVE VOLUMES      L**3       RATES FOR THIS TIME STEP      L**3/T
     ------------------                 ------------------------

           IN:                                      IN:
           ---                                      ---
             STORAGE =       55810.9219               STORAGE =        4748.3745
       CONSTANT HEAD =           0.0000         CONSTANT HEAD =           0.0000
               WELLS =           0.0000                 WELLS =           0.0000
       RIVER LEAKAGE =           0.0000         RIVER LEAKAGE =           0.0000
            RECHARGE =      390154.0938              RECHARGE =       33296.1602

            TOTAL IN =      445965.0000              TOTAL IN =       38044.5352

          OUT:                                     OUT:
          ----                                     ----
             STORAGE =       89593.8594               STORAGE =        8111.4800
       CONSTANT HEAD =           0.0000         CONSTANT HEAD =           0.0000
[...]
  10    0.000       0.000       31.85       33.20       35.51       38.45       41.68       44.95       48.17       51.42    
        54.80       58.59       63.11       68.59       74.98       81.97       89.20       96.43       102.8       106.5    

 HEAD WILL BE SAVED ON UNIT   51 AT END OF TIME STEP   97, STRESS PERIOD    3

 DRAWDOWN WILL BE SAVED ON UNIT   52 AT END OF TIME STEP   97, STRESS PERIOD    3
1
  VOLUMETRIC BUDGET FOR ENTIRE MODEL AT END OF TIME STEP   97, STRESS PERIOD   3
  ------------------------------------------------------------------------------

     CUMULATIVE VOLUMES      L**3       RATES FOR THIS TIME STEP      L**3/T
     ------------------                 ------------------------

           IN:                                      IN:
           ---                                      ---
             STORAGE =     4533261.0000               STORAGE =       28587.0879
       CONSTANT HEAD =           0.0000         CONSTANT HEAD =           0.0000
               WELLS =           0.0000                 WELLS =           0.0000
       RIVER LEAKAGE =           0.0000         RIVER LEAKAGE =           0.0000
            RECHARGE =     5318918.5000              RECHARGE =       20261.7871

            TOTAL IN =     9852180.0000              TOTAL IN =       48848.8750

          OUT:                                     OUT:
          ----                                     ----
             STORAGE =      790712.7500               STORAGE =           0.0000
       CONSTANT HEAD =           0.0000         CONSTANT HEAD =           0.0000
               WELLS =      100870.6484                 WELLS =         509.4487
       RIVER LEAKAGE =     8959870.0000         RIVER LEAKAGE =       48332.2305
            RECHARGE =           0.0000              RECHARGE =           0.0000

           TOTAL OUT =     9851453.0000             TOTAL OUT =       48841.6797

            IN - OUT =         727.0000              IN - OUT =           7.1953

 PERCENT DISCREPANCY =           0.01     PERCENT DISCREPANCY =           0.01






         TIME SUMMARY AT END OF TIME STEP   97 IN STRESS PERIOD    3
                    SECONDS     MINUTES      HOURS       DAYS        YEARS
                    -----------------------------------------------------------
   TIME STEP LENGTH  86400.      1440.0      24.000      1.0000     2.73785E-03
 STRESS PERIOD TIME 8.38080E+06 1.39680E+05  2328.0      97.000     0.26557    
         TOTAL TIME 1.71072E+07 2.85120E+05  4752.0      198.00     0.54209    
1

 SOLVING FOR HEAD 

    ------------------------------------------------
       NWT REQUIRED            3 OUTER ITERATIONS 
       AND A TOTAL OF          3 INNER ITERATIONS.
    ------------------------------------------------

 OUTPUT CONTROL FOR STRESS PERIOD    3   TIME STEP   98
    SAVE HEAD FOR ALL LAYERS
    SAVE DRAWDOWN FOR ALL LAYERS
    SAVE BUDGET
    PRINT HEAD FOR ALL LAYERS
    PRINT BUDGET
1
              HEAD IN LAYER   1 AT END OF TIME STEP  98 IN STRESS PERIOD    3
  ---------------------------------------------------------------------------

            1           2           3           4           5           6           7           8           9          10
           11          12          13          14          15          16          17          18          19          20
 ........................................................................................................................
   1    0.000       0.000       0.000       0.000       0.000       10.55       10.40       10.84       11.52       11.46    
        10.21       7.332       2.098     -0.6316       5.726       21.59       31.95       37.49       0.000       0.000    
   2    0.000       0.000       0.000       0.000       8.353       7.924       7.119       7.814       9.318       9.600    
        8.732       6.549       2.471     -0.7898       8.317       23.34       33.64       39.54       0.000       0.000    
   3    0.000       0.000       0.000       6.319       5.982       3.964       3.088       3.687       5.170       5.730    
        5.385       4.360       2.725      -1.149       14.12       26.12       37.08       43.80       0.000       0.000    
   4    0.000       0.000       3.562       3.884       2.598     -0.9762     -0.6084     -0.7899      -1.133      -1.058    
       -1.016     -0.7276       1.199      -1.244       19.05       32.39       42.14       50.76       0.000       0.000    
   5    0.000       0.000      0.1757     -0.2162      -1.352     -0.5345       4.851       8.219       11.39       12.07    
        9.875     -0.5357      -1.224      0.2133       26.06       39.68       53.40       64.47       75.39       0.000    
   6    0.000      -1.262      -1.449      -1.007       1.780       10.70       16.08       19.74       22.35       23.90    
        23.64       21.53       22.92       28.08       40.98       53.45       67.80       72.89       77.84       0.000    
   7    0.000       9.723       11.29       13.17       16.31       21.38       25.79       29.18       31.21       34.20    
        35.82       37.06       40.06       45.60       54.89       65.14       74.18       80.23       0.000       0.000    
   8    0.000       16.03       20.33       22.97       25.99       29.79       33.56       36.91       39.77       42.69    
        45.29       48.06       51.97       57.56       65.03       73.20       80.70       88.79       0.000       0.000    
   9    0.000       0.000       28.09       29.77       32.33       35.54       38.94       42.25       45.38       48.50    
        51.64       55.14       59.48       65.00       71.69       79.03       86.47       94.44       102.3       107.2    
  10    0.000       0.000       31.85       33.20       35.51       38.45       41.68       44.95       48.17       51.42    
        54.80       58.58       63.11       68.58       74.98       81.97       89.20       96.43       102.8       106.5    

 HEAD WILL BE SAVED ON UNIT   51 AT END OF TIME STEP   98, STRESS PERIOD    3

 DRAWDOWN WILL BE SAVED ON UNIT   52 AT END OF TIME STEP   98, STRESS PERIOD    3
1
  VOLUMETRIC BUDGET FOR ENTIRE MODEL AT END OF TIME STEP   98, STRESS PERIOD   3
  ------------------------------------------------------------------------------

     CUMULATIVE VOLUMES      L**3       RATES FOR THIS TIME STEP      L**3/T
     ------------------                 ------------------------

           IN:                                      IN:
           ---                                      ---
             STORAGE =     4561640.0000               STORAGE =       28379.2422
       CONSTANT HEAD =           0.0000         CONSTANT HEAD =           0.0000
               WELLS =           0.0000                 WELLS =           0.0000
       RIVER LEAKAGE =           0.0000         RIVER LEAKAGE =           0.0000
            RECHARGE =     5339180.5000              RECHARGE =       20261.7871

            TOTAL IN =     9900820.0000              TOTAL IN =       48641.0312

          OUT:                                     OUT:
          ----                                     ----
             STORAGE =      790712.7500               STORAGE =           0.0000
       CONSTANT HEAD =           0.0000         CONSTANT HEAD =           0.0000
               WELLS =      101380.0938                 WELLS =         509.4487
       RIVER LEAKAGE =     9007994.0000         RIVER LEAKAGE =       48124.4375
            RECHARGE =           0.0000              RECHARGE =           0.0000

           TOTAL OUT =     9900087.0000             TOTAL OUT =       48633.8867

            IN - OUT =         733.0000              IN - OUT =           7.1445

 PERCENT DISCREPANCY =           0.01     PERCENT DISCREPANCY =           0.01






         TIME SUMMARY AT END OF TIME STEP   98 IN STRESS PERIOD    3
                    SECONDS     MINUTES      HOURS       DAYS        YEARS
                    -----------------------------------------------------------
   TIME STEP LENGTH  86400.      1440.0      24.000      1.0000     2.73785E-03
 STRESS PERIOD TIME 8.46720E+06 1.41120E+05  2352.0      98.000     0.26831    
         TOTAL TIME 1.71936E+07 2.86560E+05  4776.0      199.00     0.54483    
1

 SOLVING FOR HEAD 

    ------------------------------------------------
       NWT REQUIRED            3 OUTER ITERATIONS 
       AND A TOTAL OF          3 INNER ITERATIONS.
    ------------------------------------------------

 OUTPUT CONTROL FOR STRESS PERIOD    3   TIME STEP   99
    SAVE HEAD FOR ALL LAYERS
    SAVE DRAWDOWN FOR ALL LAYERS
    SAVE BUDGET
    PRINT HEAD FOR ALL LAYERS
    PRINT BUDGET
1
              HEAD IN LAYER   1 AT END OF TIME STEP  99 IN STRESS PERIOD    3
  ---------------------------------------------------------------------------

            1           2           3           4           5           6           7           8           9          10
           11          12          13          14          15          16          17          18          19          20
 ........................................................................................................................
   1    0.000       0.000       0.000       0.000       0.000       10.55       10.40       10.84       11.52       11.46    
        10.21       7.331       2.096     -0.6350       5.724       21.59       31.95       37.49       0.000       0.000    
   2    0.000       0.000       0.000       0.000       8.353       7.923       7.118       7.813       9.317       9.599    
        8.731       6.548       2.469     -0.7936       8.315       23.34       33.64       39.54       0.000       0.000    
   3    0.000       0.000       0.000       6.319       5.981       3.962       3.086       3.685       5.168       5.728    
        5.383       4.358       2.723      -1.153       14.12       26.12       37.08       43.80       0.000       0.000    
   4    0.000       0.000       3.561       3.882       2.595     -0.9802     -0.6120     -0.7940      -1.138      -1.062    
       -1.020     -0.7311       1.196      -1.248       19.04       32.39       42.13       50.76       0.000       0.000    
   5    0.000       0.000      0.1718     -0.2184      -1.356     -0.5383       4.848       8.217       11.39       12.07    
        9.873     -0.5394      -1.228      0.2119       26.06       39.68       53.40       64.47       75.39       0.000    
   6    0.000      -1.266      -1.452      -1.011       1.776       10.70       16.08       19.74       22.35       23.90    
        23.64       21.53       22.91       28.08       40.98       53.45       67.80       72.89       77.84       0.000    
   7    0.000       9.721       11.29       13.17       16.31       21.37       25.79       29.18       31.21       34.20    
        35.82       37.06       40.06       45.60       54.89       65.14       74.18       80.23       0.000       0.000    
   8    0.000       16.02       20.33       22.97       25.99       29.79       33.56       36.91       39.77       42.69    
        45.29       48.06       51.97       57.56       65.03       73.20       80.70       88.79       0.000       0.000    
   9    0.000       0.000       28.09       29.76       32.33       35.54       38.94       42.25       45.38       48.50    
        51.64       55.14       59.48       65.00       71.69       79.03       86.47       94.44       102.3       107.2    
  10    0.000       0.000       31.85       33.20       35.51       38.45       41.67       44.95       48.17       51.42    
        54.80       58.58       63.11       68.58       74.98       81.97       89.20       96.43       102.8       106.5    

 HEAD WILL BE SAVED ON UNIT   51 AT END OF TIME STEP   99, STRESS PERIOD    3

 DRAWDOWN WILL BE SAVED ON UNIT   52 AT END OF TIME STEP   99, STRESS PERIOD    3
1
  VOLUMETRIC BUDGET FOR ENTIRE MODEL AT END OF TIME STEP   99, STRESS PERIOD   3
  ------------------------------------------------------------------------------

     CUMULATIVE VOLUMES      L**3       RATES FOR THIS TIME STEP      L**3/T
     ------------------                 ------------------------

           IN:                                      IN:
           ---                                      ---
             STORAGE =     4589813.5000               STORAGE =       28173.5957
       CONSTANT HEAD =           0.0000         CONSTANT HEAD =           0.0000
               WELLS =           0.0000                 WELLS =           0.0000
       RIVER LEAKAGE =           0.0000         RIVER LEAKAGE =           0.0000
            RECHARGE =     5359442.5000              RECHARGE =       20261.7871

            TOTAL IN =     9949256.0000              TOTAL IN =       48435.3828

          OUT:                                     OUT:
          ----                                     ----
             STORAGE =      790712.7500               STORAGE =           0.0000
       CONSTANT HEAD =           0.0000         CONSTANT HEAD =           0.0000
               WELLS =      101889.5391                 WELLS =         509.4487
       RIVER LEAKAGE =     9055913.0000         RIVER LEAKAGE =       47918.8438
            RECHARGE =           0.0000              RECHARGE =           0.0000

           TOTAL OUT =     9948515.0000             TOTAL OUT =       48428.2930

            IN - OUT =         741.0000              IN - OUT =           7.0898

 PERCENT DISCREPANCY =           0.01     PERCENT DISCREPANCY =           0.01






         TIME SUMMARY AT END OF TIME STEP   99 IN STRESS PERIOD    3
                    SECONDS     MINUTES      HOURS       DAYS        YEARS
                    -----------------------------------------------------------
   TIME STEP LENGTH  86400.      1440.0      24.000      1.0000     2.73785E-03
 STRESS PERIOD TIME 8.55360E+06 1.42560E+05  2376.0      99.000     0.27105    
         TOTAL TIME 1.72800E+07 2.88000E+05  4800.0      200.00     0.54757    
1

 SOLVING FOR HEAD 

    ------------------------------------------------
       NWT REQUIRED            3 OUTER ITERATIONS 
       AND A TOTAL OF          3 INNER ITERATIONS.
    ------------------------------------------------

 OUTPUT CONTROL FOR STRESS PERIOD    3   TIME STEP  100
    SAVE HEAD FOR ALL LAYERS
    SAVE DRAWDOWN FOR ALL LAYERS
    SAVE BUDGET
    PRINT HEAD FOR ALL LAYERS
    PRINT BUDGET
1
              HEAD IN LAYER   1 AT END OF TIME STEP 100 IN STRESS PERIOD    3
  ---------------------------------------------------------------------------

            1           2           3           4           5           6           7           8           9          10
           11          12          13          14          15          16          17          18          19          20
 ........................................................................................................................
   1    0.000       0.000       0.000       0.000       0.000       10.55       10.40       10.84       11.52       11.46    
        10.21       7.331       2.094     -0.6383       5.722       21.59       31.95       37.49       0.000       0.000    
   2    0.000       0.000       0.000       0.000       8.352       7.922       7.117       7.812       9.317       9.599    
        8.730       6.547       2.467     -0.7974       8.313       23.34       33.64       39.54       0.000       0.000    
   3    0.000       0.000       0.000       6.318       5.980       3.960       3.084       3.683       5.166       5.727    
        5.381       4.357       2.721      -1.158       14.12       26.12       37.08       43.80       0.000       0.000    
   4    0.000       0.000       3.560       3.881       2.593     -0.9842     -0.6157     -0.7979      -1.142      -1.066    
       -1.024     -0.7347       1.193      -1.252       19.04       32.39       42.13       50.76       0.000       0.000    
   5    0.000       0.000      0.1679     -0.2205      -1.360     -0.5420       4.846       8.215       11.39       12.07    
        9.870     -0.5431      -1.231      0.2106       26.05       39.68       53.40       64.46       75.39       0.000    
   6    0.000      -1.270      -1.456      -1.015       1.772       10.70       16.08       19.74       22.35       23.90    
        23.64       21.52       22.91       28.08       40.98       53.45       67.80       72.89       77.84       0.000    
   7    0.000       9.719       11.29       13.16       16.31       21.37       25.78       29.18       31.21       34.20    
        35.82       37.06       40.06       45.60       54.89       65.14       74.18       80.23       0.000       0.000    
   8    0.000       16.02       20.33       22.97       25.99       29.79       33.56       36.91       39.77       42.69    
        45.29       48.06       51.96       57.56       65.03       73.20       80.70       88.79       0.000       0.000    
   9    0.000       0.000       28.09       29.76       32.33       35.54       38.94       42.25       45.38       48.50    
        51.64       55.13       59.48       65.00       71.69       79.03       86.47       94.44       102.3       107.2    
  10    0.000       0.000       31.84       33.20       35.50       38.44       41.67       44.95       48.17       51.42    
        54.80       58.58       63.11       68.58       74.98       81.97       89.20       96.43       102.8       106.5    

 HEAD WILL BE SAVED ON UNIT   51 AT END OF TIME STEP  100, STRESS PERIOD    3

 DRAWDOWN WILL BE SAVED ON UNIT   52 AT END OF TIME STEP  100, STRESS PERIOD    3
1
  VOLUMETRIC BUDGET FOR ENTIRE MODEL AT END OF TIME STEP  100, STRESS PERIOD   3
  ------------------------------------------------------------------------------

     CUMULATIVE VOLUMES      L**3       RATES FOR THIS TIME STEP      L**3/T
     ------------------                 ------------------------

           IN:                                      IN:
           ---                                      ---
             STORAGE =     4617783.5000               STORAGE =       27970.1172
       CONSTANT HEAD =           0.0000         CONSTANT HEAD =           0.0000
               WELLS =           0.0000                 WELLS =           0.0000
       RIVER LEAKAGE =           0.0000         RIVER LEAKAGE =           0.0000
            RECHARGE =     5379704.5000              RECHARGE =       20261.7871

            TOTAL IN =     9997488.0000              TOTAL IN =       48231.9062

          OUT:                                     OUT:
          ----                                     ----
             STORAGE =      790712.7500               STORAGE =           0.0000
       CONSTANT HEAD =           0.0000         CONSTANT HEAD =           0.0000
               WELLS =      102398.9844                 WELLS =         509.4487
       RIVER LEAKAGE =     9103628.0000         RIVER LEAKAGE =       47715.4141
            RECHARGE =           0.0000              RECHARGE =           0.0000

           TOTAL OUT =     9996740.0000             TOTAL OUT =       48224.8633

            IN - OUT =         748.0000              IN - OUT =           7.0430

 PERCENT DISCREPANCY =           0.01     PERCENT DISCREPANCY =           0.01






         TIME SUMMARY AT END OF TIME STEP  100 IN STRESS PERIOD    3
                    SECONDS     MINUTES      HOURS       DAYS        YEARS
                    -----------------------------------------------------------
   TIME STEP LENGTH  86400.      1440.0      24.000      1.0000     2.73785E-03
 STRESS PERIOD TIME 8.64000E+06 1.44000E+05  2400.0      100.00     0.27379    
         TOTAL TIME 1.73664E+07 2.89440E+05  4824.0      201.00     0.55031    
1

 Run end date and time (yyyy/mm/dd hh:mm:ss): 2014/12/14  6:00:16
 Elapsed run time:  0.119 Seconds

