                                  MODFLOW-NWT-SWR1 
      U.S. GEOLOGICAL SURVEY MODULAR FINITE-DIFFERENCE GROUNDWATER-FLOW MODEL
                            VERSION 1.0.9 07/01/2014
                    BASED ON MODFLOW-2005 VERSION 1.11.00 08/30/2013

 LIST FILE: flopy_model.list
                         UNIT    2

 OPENING flopy_model.nwt
 FILE TYPE:NWT   UNIT   32   STATUS:OLD    
 FORMAT:FORMATTED              ACCESS:SEQUENTIAL          

 OPENING flopy_model.dis
 FILE TYPE:DIS   UNIT   11   STATUS:OLD    
 FORMAT:FORMATTED              ACCESS:SEQUENTIAL          

 OPENING flopy_model.bas
 FILE TYPE:BAS6   UNIT   13   STATUS:OLD    
 FORMAT:FORMATTED              ACCESS:SEQUENTIAL          

 OPENING flopy_model.upw
 FILE TYPE:UPW   UNIT   31   STATUS:OLD    
 FORMAT:FORMATTED              ACCESS:SEQUENTIAL          

 OPENING flopy_model.wel
 FILE TYPE:WEL   UNIT   20   STATUS:OLD    
 FORMAT:FORMATTED              ACCESS:SEQUENTIAL          

 OPENING flopy_model.riv
 FILE TYPE:RIV   UNIT   18   STATUS:OLD    
 FORMAT:FORMATTED              ACCESS:SEQUENTIAL          

 OPENING flopy_model.rch
 FILE TYPE:RCH   UNIT   19   STATUS:OLD    
 FORMAT:FORMATTED              ACCESS:SEQUENTIAL          

 OPENING flopy_model.oc
 FILE TYPE:OC   UNIT   14   STATUS:OLD    
 FORMAT:FORMATTED              ACCESS:SEQUENTIAL          

 OPENING flopy_model.hds
 FILE TYPE:DATA(BINARY)   UNIT   51   STATUS:REPLACE
 FORMAT:UNFORMATTED            ACCESS:STREAM              

 OPENING flopy_model.ddn
 FILE TYPE:DATA(BINARY)   UNIT   52   STATUS:REPLACE
 FORMAT:UNFORMATTED            ACCESS:STREAM              

 OPENING flopy_model.cbc
 FILE TYPE:DATA(BINARY)   UNIT   53   STATUS:REPLACE
 FORMAT:UNFORMATTED            ACCESS:STREAM              

 BAS -- BASIC PACKAGE, VERSION 7, 5/2/2005 INPUT READ FROM UNIT   13

 MODFLOW was compiled using mixed precision
 Precision of REAL variables:           6
 Precision of DOUBLE PRECISION variables:          15

 DISCRETIZATION INPUT DATA READ FROM UNIT   11
 # Discretization file for MODFLOW, generated by Flopy.
    1 LAYERS        10 ROWS        20 COLUMNS
    3 STRESS PERIOD(S) IN SIMULATION
 MODEL TIME UNIT IS DAYS
 MODEL LENGTH UNIT IS METERS
  Confining bed flag for each layer:
   0

                     DELR =   2857.99    

                     DELC =   2616.01    

 TOP ELEVATION OF LAYER 1 =   0.00000    

   MODEL LAYER BOTTOM EL. =  -50.0000     FOR LAYER   1


 STRESS PERIOD     LENGTH       TIME STEPS     MULTIPLIER FOR DELT    SS FLAG
 ----------------------------------------------------------------------------
        1         1.000000          1                    1.000         SS
        2         100.0000        100                    1.000         TR
        3         100.0000        100                    1.000         TR

 COMBINED STEADY-STATE AND TRANSIENT SIMULATION




 # Basic package file for MODFLOW, generated by Flopy.                           
 THE FREE FORMAT OPTION HAS BEEN SELECTED



                     BOUNDARY ARRAY FOR LAYER   1
 READING ON UNIT   13 WITH FORMAT: (20I10)             

 AQUIFER HEAD WILL BE SET TO   0.0000     AT ALL NO-FLOW NODES (IBOUND=0).



                       INITIAL HEAD FOR LAYER   1
 READING ON UNIT   13 WITH FORMAT: (20G15.6)           
 # Output control package file for MODFLOW, generated by Flopy. Output control by words option

 OUTPUT CONTROL IS SPECIFIED ONLY AT TIME STEPS FOR WHICH OUTPUT IS DESIRED
 HEAD PRINT FORMAT CODE IS   0    DRAWDOWN PRINT FORMAT CODE IS   0
 HEADS WILL BE SAVED ON UNIT   51    DRAWDOWNS WILL BE SAVED ON UNIT   52
 # NWT for MODFLOW-NWT, generated by Flopy.

 NWT1 -- Newton Solver, VERSION 1.0.9, 07/01/2014
         INPUT READ FROM UNIT 32

 COMPLEX OPTION:
 DEFAULT SOLVER INPUT VALUES REFLECT STRONGLY NONLINEAR MODEL
 ***GMRES linear solver will be used***

   CONVERGENCE CRITERION OF   0.100000E-03 FOR HEAD SOLUTION
   AND A TOLERANCE OF   0.500000E+03 FOR FLOW SOLUTION AND 
   A MAXIMUM OF   100 OUTER ITERATIONS. 


   D-B-D REDUCTION FACTOR OF    0.850000E+00 AND 
   A D-B-D INCREASE FACTOR OF    0.100000E-04 AND 
   A D-B-D RELAXATION OF    0.000000E+00 AND 
   A MOMENTUM FACTOR OF    0.100000E+00 .


   BACKTRACKING IS ACTIVE 
   THE MAXIMUM NUMBER OF BACKTRACKS IS    50 AND 
   THE BACKTRACKING TOLERANCE IS    0.110000E+01 AND
   THE BACKTRACKING REDUCTION FACTOR IS    0.700000E+00

 GMRES -- LINEAR SOLUTION BY GMRES PACKAGE 
     adapted for HYDROTHERM by Kipp and others (2008)
     using software originally developed by Saad (1990) 32
     using algorithms described in Saad (2003)

 UPW1 -- UPSTREAM WEIGHTING FLOW PACKAGE, VERSION 1.0.6, 12/05/2012
         INPUT READ FROM UNIT 31

 # UPW for MODFLOW-NWT, generated by Flopy.
 No named parameters

   LAYER FLAGS:
 LAYER       LAYTYP          LAYAVG    CHANI           LAYVKA           LAYWET
 ---------------------------------------------------------------------------
    1             1             1     1.000E+00             1             0

   INTERPRETATION OF LAYER FLAGS:
                        INTERBLOCK     HORIZONTAL    DATA IN
         LAYER TYPE   TRANSMISSIVITY   ANISOTROPY   ARRAY VKA   WETTABILITY
 LAYER   (LAYTYP)        (LAYAVG)      (CHANI)     (LAYVKA)       (LAYWET)
 ---------------------------------------------------------------------------
    1   CONVERTIBLE   LOGARITHMIC     1.000E+00    ANISOTROPY  NON-WETTABLE



              HYD. COND. ALONG ROWS FOR LAYER   1
 READING ON UNIT   31 WITH FORMAT: (20G15.6)           

  HORIZ. TO VERTICAL ANI. =   1.00000     FOR LAYER   1

         SPECIFIC STORAGE =  1.000000E-04 FOR LAYER   1



                     SPECIFIC YIELD FOR LAYER   1
 READING ON UNIT   31 WITH FORMAT: (20G15.6)           

 WEL -- WELL PACKAGE, VERSION 1.0.6, 12/05/2012 INPUT READ FROM UNIT   20
 # Well file for MODFLOW, generated by Flopy.
 No named parameters
 MAXIMUM OF      4 ACTIVE WELLS AT ONE TIME
 No named parameters
  PHIRAMP WILL BE SET TO A DEFAULT VALUE OF 0.05
  WELLS WITH REDUCED PUMPING WILL BE REPORTED TO THE MAIN LISTING FILE


     0 Well parameters

 RIV -- RIVER PACKAGE, VERSION 7, 5/2/2005 INPUT READ FROM UNIT   18
 # RIV for MODFLOW, generated by Flopy.
 No named parameters
 MAXIMUM OF     22 ACTIVE RIVER REACHES AT ONE TIME


     0 River parameters

 RCH -- RECHARGE PACKAGE, VERSION 7, 5/2/2005 INPUT READ FROM UNIT   19
 # RCH for MODFLOW, generated by Flopy.
 No named parameters
 OPTION 3 -- RECHARGE TO HIGHEST ACTIVE NODE IN EACH VERTICAL COLUMN


     0 Recharge parameters
1
                            STRESS PERIOD NO.    1, LENGTH =   1.000000    
                            -----------------------------------------------

                              NUMBER OF TIME STEPS =     1

                               MULTIPLIER FOR DELT =     1.000

                            INITIAL TIME STEP SIZE =   1.000000    

 WELL NO.  LAYER   ROW   COL   STRESS RATE         
 --------------------------------------------------
      1      1      8     10      -40.42    
      2      1      8     15      -40.42    
      3      1      3     16      -40.42    
      4      1      2      7      -40.42    

      4 WELLS

 REACH NO.  LAYER   ROW   COL     STAGE      CONDUCTANCE     BOTTOM EL.         
 -------------------------------------------------------------------------------
      1      1      1     14       7.202          0.1368E+05       5.000    
      2      1      2     14       7.202          0.1361E+05       5.000    
      3      1      3     14       7.202          0.1216E+05       5.000    
      4      1      4      6       7.202          0.1098E+05       5.000    
      5      1      4      7       7.202          0.1140E+05       5.000    
      6      1      4      8       7.202          0.1188E+05       5.000    
      7      1      4      9       7.202          0.1314E+05       5.000    
      8      1      4     10       7.202          0.1208E+05       5.000    
      9      1      4     11       7.202          0.1078E+05       5.000    
     10      1      4     12       7.202           5226.           5.000    
     11      1      4     14       7.202          0.1502E+05       5.000    
     12      1      5      3       7.202           692.5           5.000    
     13      1      5      4       7.202           2057.           5.000    
     14      1      5      5       7.202          0.1353E+05       5.000    
     15      1      5      6       7.202           5979.           5.000    
     16      1      5     12       7.202           8415.           5.000    
     17      1      5     13       7.202          0.1685E+05       5.000    
     18      1      5     14       7.202           5216.           5.000    
     19      1      6      2       7.202          0.1213E+05       5.000    
     20      1      6      3       7.202          0.1814E+05       5.000    
     21      1      6      4       7.202          0.1032E+05       5.000    
     22      1      6      5       7.202           1334.           5.000    

     22 RIVER REACHES



                           RECHARGE
 READING ON UNIT   19 WITH FORMAT: (20G15.6)           

 SOLVING FOR HEAD 

    ------------------------------------------------
       NWT REQUIRED            7 OUTER ITERATIONS 
       AND A TOTAL OF        104 INNER ITERATIONS.
    ------------------------------------------------

 OUTPUT CONTROL FOR STRESS PERIOD    1   TIME STEP    1
    SAVE HEAD FOR ALL LAYERS
    SAVE DRAWDOWN FOR ALL LAYERS
    SAVE BUDGET
    PRINT HEAD FOR ALL LAYERS
    PRINT BUDGET
1
              HEAD IN LAYER   1 AT END OF TIME STEP   1 IN STRESS PERIOD    1
  ---------------------------------------------------------------------------

            1           2           3           4           5           6           7           8           9          10
           11          12          13          14          15          16          17          18          19          20
 ........................................................................................................................
   1    0.000       0.000       0.000       0.000       0.000       7.200       7.190       7.212       7.230       7.240    
        7.241       7.235       7.219       7.203       7.227       7.257       7.286       7.303       0.000       0.000    
   2    0.000       0.000       0.000       0.000       7.212       7.196       7.152       7.203       7.224       7.234    
        7.236       7.231       7.219       7.203       7.226       7.246       7.284       7.306       0.000       0.000    
   3    0.000       0.000       0.000       0.000       7.213       7.203       7.194       7.206       7.217       7.223    
        7.224       7.222       7.217       7.202       7.225       7.209       7.283       7.313       0.000       0.000    
   4    0.000       0.000       0.000       7.213       7.211       7.202       7.202       7.202       7.203       7.203    
        7.203       7.203       7.210       7.202       7.244       7.268       7.309       7.334       0.000       0.000    
   5    0.000       0.000       7.204       7.204       7.202       7.204       7.225       7.233       7.236       7.234    
        7.228       7.204       7.203       7.206       7.266       7.303       7.338       7.365       7.389       0.000    
   6    0.000       7.202       7.202       7.203       7.213       7.241       7.257       7.263       7.262       7.257    
        7.257       7.254       7.257       7.266       7.295       7.330       7.363       7.385       7.395       0.000    
   7    0.000       7.244       7.249       7.255       7.263       7.277       7.285       7.286       7.278       7.264    
        7.277       7.286       7.292       7.298       7.308       7.348       7.381       7.401       0.000       0.000    
   8    0.000       7.269       7.284       7.291       7.298       7.305       7.308       7.304       7.287       7.237    
        7.288       7.308       7.317       7.315       7.285       7.358       7.398       7.422       0.000       0.000    
   9    0.000       0.000       7.313       7.317       7.321       7.325       7.325       7.321       7.310       7.297    
        7.313       7.328       7.337       7.342       7.347       7.384       7.418       7.448       7.482       7.499    
  10    0.000       0.000       7.327       7.329       7.333       7.335       7.335       7.331       7.324       7.320    
        7.328       7.339       7.349       7.358       7.371       7.398       7.429       7.458       7.484       7.499    

 HEAD WILL BE SAVED ON UNIT   51 AT END OF TIME STEP    1, STRESS PERIOD    1

 DRAWDOWN WILL BE SAVED ON UNIT   52 AT END OF TIME STEP    1, STRESS PERIOD    1
1
  VOLUMETRIC BUDGET FOR ENTIRE MODEL AT END OF TIME STEP    1, STRESS PERIOD   1
  ------------------------------------------------------------------------------

     CUMULATIVE VOLUMES      L**3       RATES FOR THIS TIME STEP      L**3/T
     ------------------                 ------------------------

           IN:                                      IN:
           ---                                      ---
             STORAGE =           0.0000               STORAGE =           0.0000
       CONSTANT HEAD =           0.0000         CONSTANT HEAD =           0.0000
               WELLS =           0.0000                 WELLS =           0.0000
       RIVER LEAKAGE =           0.0000         RIVER LEAKAGE =           0.0000
            RECHARGE =         430.4229              RECHARGE =         430.4229

            TOTAL IN =         430.4229              TOTAL IN =         430.4229

          OUT:                                     OUT:
          ----                                     ----
             STORAGE =           0.0000               STORAGE =           0.0000
       CONSTANT HEAD =           0.0000         CONSTANT HEAD =           0.0000
               WELLS =         161.6886                 WELLS =         161.6886
       RIVER LEAKAGE =         268.8873         RIVER LEAKAGE =         268.8873
            RECHARGE =           0.0000              RECHARGE =           0.0000

           TOTAL OUT =         430.5760             TOTAL OUT =         430.5760

            IN - OUT =          -0.1530              IN - OUT =          -0.1530

 PERCENT DISCREPANCY =          -0.04     PERCENT DISCREPANCY =          -0.04






         TIME SUMMARY AT END OF TIME STEP    1 IN STRESS PERIOD    1
                    SECONDS     MINUTES      HOURS       DAYS        YEARS
                    -----------------------------------------------------------
   TIME STEP LENGTH  86400.      1440.0      24.000      1.0000     2.73785E-03
 STRESS PERIOD TIME  86400.      1440.0      24.000      1.0000     2.73785E-03
         TOTAL TIME  86400.      1440.0      24.000      1.0000     2.73785E-03
1
1
                            STRESS PERIOD NO.    2, LENGTH =   100.0000    
                            -----------------------------------------------

                              NUMBER OF TIME STEPS =   100

                               MULTIPLIER FOR DELT =     1.000

                            INITIAL TIME STEP SIZE =   1.000000    

 WELL NO.  LAYER   ROW   COL   STRESS RATE         
 --------------------------------------------------
      1      1      8     10      -63.65    
      2      1      8     15      -63.65    
      3      1      3     16      -63.65    
      4      1      2      7      -63.65    

      4 WELLS

 REACH NO.  LAYER   ROW   COL     STAGE      CONDUCTANCE     BOTTOM EL.         
 -------------------------------------------------------------------------------
      1      1      1     14       7.844          0.1368E+05       5.000    
      2      1      2     14       7.844          0.1361E+05       5.000    
      3      1      3     14       7.844          0.1216E+05       5.000    
      4      1      4      6       7.844          0.1098E+05       5.000    
      5      1      4      7       7.844          0.1140E+05       5.000    
      6      1      4      8       7.844          0.1188E+05       5.000    
      7      1      4      9       7.844          0.1314E+05       5.000    
      8      1      4     10       7.844          0.1208E+05       5.000    
      9      1      4     11       7.844          0.1078E+05       5.000    
     10      1      4     12       7.844           5226.           5.000    
     11      1      4     14       7.844          0.1502E+05       5.000    
     12      1      5      3       7.844           692.5           5.000    
     13      1      5      4       7.844           2057.           5.000    
     14      1      5      5       7.844          0.1353E+05       5.000    
     15      1      5      6       7.844           5979.           5.000    
     16      1      5     12       7.844           8415.           5.000    
     17      1      5     13       7.844          0.1685E+05       5.000    
     18      1      5     14       7.844           5216.           5.000    
     19      1      6      2       7.844          0.1213E+05       5.000    
     20      1      6      3       7.844          0.1814E+05       5.000    
     21      1      6      4       7.844          0.1032E+05       5.000    
     22      1      6      5       7.844           1334.           5.000    

     22 RIVER REACHES



                           RECHARGE
 READING ON UNIT   19 WITH FORMAT: (20G15.6)           

 SOLVING FOR HEAD 

    ------------------------------------------------
       NWT REQUIRED            4 OUTER ITERATIONS 
       AND A TOTAL OF          5 INNER ITERATIONS.
    ------------------------------------------------

 OUTPUT CONTROL FOR STRESS PERIOD    2   TIME STEP    1
    SAVE HEAD FOR ALL LAYERS
    SAVE DRAWDOWN FOR ALL LAYERS
    SAVE BUDGET
    PRINT HEAD FOR ALL LAYERS
    PRINT BUDGET
1
              HEAD IN LAYER   1 AT END OF TIME STEP   1 IN STRESS PERIOD    2
  ---------------------------------------------------------------------------

            1           2           3           4           5           6           7           8           9          10
           11          12          13          14          15          16          17          18          19          20
 ........................................................................................................................
   1    0.000       0.000       0.000       0.000       0.000       7.200       7.190       7.212       7.230       7.240    
        7.242       7.235       7.221       7.373       7.228       7.257       7.286       7.303       0.000       0.000    
   2    0.000       0.000       0.000       0.000       7.212       7.196       7.151       7.203       7.224       7.234    
        7.236       7.232       7.220       7.372       7.227       7.246       7.284       7.306       0.000       0.000    
   3    0.000       0.000       0.000       0.000       7.213       7.204       7.195       7.207       7.218       7.223    
        7.225       7.223       7.218       7.359       7.226       7.208       7.283       7.313       0.000       0.000    
   4    0.000       0.000       0.000       7.214       7.212       7.346       7.350       7.356       7.368       7.358    
        7.345       7.282       7.212       7.385       7.245       7.268       7.309       7.334       0.000       0.000    
   5    0.000       0.000       7.217       7.238       7.371       7.292       7.227       7.235       7.237       7.235    
        7.230       7.321       7.400       7.285       7.266       7.303       7.338       7.365       7.389       0.000    
   6    0.000       7.359       7.410       7.341       7.236       7.242       7.257       7.263       7.262       7.257    
        7.257       7.254       7.258       7.267       7.295       7.330       7.363       7.385       7.395       0.000    
   7    0.000       7.245       7.250       7.255       7.264       7.277       7.285       7.286       7.278       7.264    
        7.277       7.286       7.292       7.298       7.308       7.348       7.381       7.401       0.000       0.000    
   8    0.000       7.269       7.284       7.291       7.298       7.305       7.308       7.304       7.287       7.236    
        7.288       7.308       7.317       7.315       7.284       7.358       7.398       7.423       0.000       0.000    
   9    0.000       0.000       7.313       7.317       7.321       7.325       7.325       7.321       7.310       7.297    
        7.313       7.328       7.337       7.342       7.347       7.384       7.418       7.448       7.482       7.499    
  10    0.000       0.000       7.327       7.330       7.333       7.335       7.335       7.331       7.324       7.320    
        7.328       7.339       7.349       7.358       7.371       7.398       7.429       7.458       7.484       7.499    

 HEAD WILL BE SAVED ON UNIT   51 AT END OF TIME STEP    1, STRESS PERIOD    2

 DRAWDOWN WILL BE SAVED ON UNIT   52 AT END OF TIME STEP    1, STRESS PERIOD    2
1
  VOLUMETRIC BUDGET FOR ENTIRE MODEL AT END OF TIME STEP    1, STRESS PERIOD   2
  ------------------------------------------------------------------------------

     CUMULATIVE VOLUMES      L**3       RATES FOR THIS TIME STEP      L**3/T
     ------------------                 ------------------------

           IN:                                      IN:
           ---                                      ---
             STORAGE =          86.1658               STORAGE =          86.1658
       CONSTANT HEAD =           0.0000         CONSTANT HEAD =           0.0000
               WELLS =           0.0000                 WELLS =           0.0000
       RIVER LEAKAGE =      109013.1641         RIVER LEAKAGE =      109013.1641
            RECHARGE =        1030.1555              RECHARGE =         599.7326

            TOTAL IN =      110129.4844              TOTAL IN =      109699.0625

          OUT:                                     OUT:
          ----                                     ----
             STORAGE =      109446.2734               STORAGE =      109446.2734
       CONSTANT HEAD =           0.0000         CONSTANT HEAD =           0.0000
               WELLS =         416.2793                 WELLS =         254.5907
       RIVER LEAKAGE =         268.8873         RIVER LEAKAGE =           0.0000
            RECHARGE =           0.0000              RECHARGE =           0.0000

           TOTAL OUT =      110131.4453             TOTAL OUT =      109700.8672

            IN - OUT =          -1.9609              IN - OUT =          -1.8047

 PERCENT DISCREPANCY =          -0.00     PERCENT DISCREPANCY =          -0.00






         TIME SUMMARY AT END OF TIME STEP    1 IN STRESS PERIOD    2
                    SECONDS     MINUTES      HOURS       DAYS        YEARS
                    -----------------------------------------------------------
   TIME STEP LENGTH  86400.      1440.0      24.000      1.0000     2.73785E-03
 STRESS PERIOD TIME  86400.      1440.0      24.000      1.0000     2.73785E-03
         TOTAL TIME 1.72800E+05  2880.0      48.000      2.0000     5.47570E-03
1

 SOLVING FOR HEAD 

    ------------------------------------------------
       NWT REQUIRED            4 OUTER ITERATIONS 
       AND A TOTAL OF          5 INNER ITERATIONS.
    ------------------------------------------------

 OUTPUT CONTROL FOR STRESS PERIOD    2   TIME STEP    2
    SAVE HEAD FOR ALL LAYERS
    SAVE DRAWDOWN FOR ALL LAYERS
    SAVE BUDGET
    PRINT HEAD FOR ALL LAYERS
    PRINT BUDGET
1
              HEAD IN LAYER   1 AT END OF TIME STEP   2 IN STRESS PERIOD    2
  ---------------------------------------------------------------------------

            1           2           3           4           5           6           7           8           9          10
           11          12          13          14          15          16          17          18          19          20
 ........................................................................................................................
   1    0.000       0.000       0.000       0.000       0.000       7.200       7.190       7.212       7.230       7.240    
        7.242       7.235       7.223       7.496       7.231       7.257       7.286       7.303       0.000       0.000    
   2    0.000       0.000       0.000       0.000       7.212       7.196       7.150       7.203       7.224       7.234    
        7.236       7.232       7.222       7.495       7.229       7.246       7.284       7.306       0.000       0.000    
   3    0.000       0.000       0.000       0.000       7.213       7.206       7.198       7.209       7.219       7.225    
        7.226       7.223       7.219       7.477       7.227       7.208       7.283       7.313       0.000       0.000    
   4    0.000       0.000       0.000       7.214       7.215       7.457       7.462       7.471       7.490       7.475    
        7.455       7.350       7.216       7.514       7.247       7.268       7.309       7.334       0.000       0.000    
   5    0.000       0.000       7.231       7.271       7.493       7.368       7.230       7.236       7.239       7.237    
        7.232       7.416       7.535       7.355       7.267       7.303       7.338       7.365       7.389       0.000    
   6    0.000       7.478       7.549       7.448       7.259       7.243       7.257       7.263       7.262       7.257    
        7.257       7.256       7.260       7.268       7.295       7.330       7.363       7.385       7.395       0.000    
   7    0.000       7.246       7.252       7.257       7.264       7.277       7.285       7.286       7.278       7.264    
        7.277       7.286       7.293       7.298       7.308       7.348       7.381       7.402       0.000       0.000    
   8    0.000       7.269       7.284       7.291       7.298       7.305       7.308       7.304       7.287       7.236    
        7.288       7.308       7.317       7.315       7.284       7.358       7.398       7.423       0.000       0.000    
   9    0.000       0.000       7.313       7.317       7.321       7.325       7.325       7.321       7.310       7.297    
        7.313       7.328       7.337       7.342       7.347       7.384       7.418       7.448       7.482       7.499    
  10    0.000       0.000       7.327       7.330       7.333       7.335       7.335       7.331       7.324       7.320    
        7.328       7.339       7.349       7.358       7.371       7.399       7.429       7.458       7.484       7.499    

 HEAD WILL BE SAVED ON UNIT   51 AT END OF TIME STEP    2, STRESS PERIOD    2

 DRAWDOWN WILL BE SAVED ON UNIT   52 AT END OF TIME STEP    2, STRESS PERIOD    2
1
  VOLUMETRIC BUDGET FOR ENTIRE MODEL AT END OF TIME STEP    2, STRESS PERIOD   2
  ------------------------------------------------------------------------------

     CUMULATIVE VOLUMES      L**3       RATES FOR THIS TIME STEP      L**3/T
     ------------------                 ------------------------

           IN:                                      IN:
           ---                                      ---
             STORAGE =         169.4550               STORAGE =          83.2893
       CONSTANT HEAD =           0.0000         CONSTANT HEAD =           0.0000
               WELLS =           0.0000                 WELLS =           0.0000
       RIVER LEAKAGE =      192196.2500         RIVER LEAKAGE =       83183.0859
            RECHARGE =        1629.8882              RECHARGE =         599.7326

            TOTAL IN =      193995.5938              TOTAL IN =       83866.1094

          OUT:                                     OUT:
          ----                                     ----
             STORAGE =      193059.1562               STORAGE =       83612.8828
       CONSTANT HEAD =           0.0000         CONSTANT HEAD =           0.0000
               WELLS =         670.8700                 WELLS =         254.5907
       RIVER LEAKAGE =         268.8873         RIVER LEAKAGE =           0.0000
            RECHARGE =           0.0000              RECHARGE =           0.0000

           TOTAL OUT =      193998.9219             TOTAL OUT =       83867.4766

            IN - OUT =          -3.3281              IN - OUT =          -1.3672

 PERCENT DISCREPANCY =          -0.00     PERCENT DISCREPANCY =          -0.00






         TIME SUMMARY AT END OF TIME STEP    2 IN STRESS PERIOD    2
                    SECONDS     MINUTES      HOURS       DAYS        YEARS
                    -----------------------------------------------------------
   TIME STEP LENGTH  86400.      1440.0      24.000      1.0000     2.73785E-03
 STRESS PERIOD TIME 1.72800E+05  2880.0      48.000      2.0000     5.47570E-03
         TOTAL TIME 2.59200E+05  4320.0      72.000      3.0000     8.21355E-03
1

 SOLVING FOR HEAD 

    ------------------------------------------------
       NWT REQUIRED            4 OUTER ITERATIONS 
       AND A TOTAL OF          5 INNER ITERATIONS.
    ------------------------------------------------

 OUTPUT CONTROL FOR STRESS PERIOD    2   TIME STEP    3
    SAVE HEAD FOR ALL LAYERS
    SAVE DRAWDOWN FOR ALL LAYERS
    SAVE BUDGET
    PRINT HEAD FOR ALL LAYERS
    PRINT BUDGET
1
              HEAD IN LAYER   1 AT END OF TIME STEP   3 IN STRESS PERIOD    2
  ---------------------------------------------------------------------------

            1           2           3           4           5           6           7           8           9          10
           11          12          13          14          15          16          17          18          19          20
 ........................................................................................................................
   1    0.000       0.000       0.000       0.000       0.000       7.200       7.190       7.212       7.230       7.240    
        7.242       7.235       7.227       7.584       7.234       7.257       7.286       7.303       0.000       0.000    
   2    0.000       0.000       0.000       0.000       7.212       7.196       7.150       7.203       7.224       7.234    
        7.236       7.232       7.225       7.585       7.232       7.246       7.284       7.306       0.000       0.000    
   3    0.000       0.000       0.000       0.000       7.213       7.209       7.201       7.212       7.221       7.227    
        7.228       7.225       7.221       7.565       7.229       7.207       7.283       7.314       0.000       0.000    
   4    0.000       0.000       0.000       7.215       7.220       7.541       7.547       7.557       7.579       7.562    
        7.539       7.410       7.222       7.605       7.248       7.268       7.309       7.334       0.000       0.000    
   5    0.000       0.000       7.245       7.303       7.582       7.434       7.234       7.239       7.241       7.239    
        7.235       7.493       7.627       7.415       7.268       7.303       7.338       7.365       7.389       0.000    
   6    0.000       7.566       7.642       7.531       7.282       7.245       7.257       7.263       7.262       7.257    
        7.258       7.257       7.262       7.269       7.295       7.330       7.363       7.385       7.395       0.000    
   7    0.000       7.249       7.255       7.259       7.264       7.277       7.285       7.286       7.278       7.264    
        7.277       7.286       7.293       7.299       7.308       7.348       7.381       7.402       0.000       0.000    
   8    0.000       7.269       7.284       7.291       7.298       7.305       7.308       7.304       7.287       7.235    
        7.288       7.308       7.317       7.315       7.283       7.358       7.398       7.423       0.000       0.000    
   9    0.000       0.000       7.313       7.317       7.321       7.325       7.325       7.321       7.310       7.297    
        7.313       7.328       7.337       7.342       7.347       7.384       7.418       7.448       7.482       7.499    
  10    0.000       0.000       7.327       7.330       7.333       7.335       7.335       7.331       7.324       7.320    
        7.328       7.339       7.349       7.358       7.371       7.399       7.429       7.458       7.484       7.499    

 HEAD WILL BE SAVED ON UNIT   51 AT END OF TIME STEP    3, STRESS PERIOD    2

 DRAWDOWN WILL BE SAVED ON UNIT   52 AT END OF TIME STEP    3, STRESS PERIOD    2
1
  VOLUMETRIC BUDGET FOR ENTIRE MODEL AT END OF TIME STEP    3, STRESS PERIOD   2
  ------------------------------------------------------------------------------

     CUMULATIVE VOLUMES      L**3       RATES FOR THIS TIME STEP      L**3/T
     ------------------                 ------------------------

           IN:                                      IN:
           ---                                      ---
             STORAGE =         249.6362               STORAGE =          80.1812
       CONSTANT HEAD =           0.0000         CONSTANT HEAD =           0.0000
               WELLS =           0.0000                 WELLS =           0.0000
       RIVER LEAKAGE =      256313.9375         RIVER LEAKAGE =       64117.6914
            RECHARGE =        2229.6208              RECHARGE =         599.7326

            TOTAL IN =      258793.2031              TOTAL IN =       64797.6055

          OUT:                                     OUT:
          ----                                     ----
             STORAGE =      257603.2188               STORAGE =       64544.0586
       CONSTANT HEAD =           0.0000         CONSTANT HEAD =           0.0000
               WELLS =         925.4607                 WELLS =         254.5907
       RIVER LEAKAGE =         268.8873         RIVER LEAKAGE =           0.0000
            RECHARGE =           0.0000              RECHARGE =           0.0000

           TOTAL OUT =      258797.5625             TOTAL OUT =       64798.6484

            IN - OUT =          -4.3594              IN - OUT =          -1.0430

 PERCENT DISCREPANCY =          -0.00     PERCENT DISCREPANCY =          -0.00






         TIME SUMMARY AT END OF TIME STEP    3 IN STRESS PERIOD    2
                    SECONDS     MINUTES      HOURS       DAYS        YEARS
                    -----------------------------------------------------------
   TIME STEP LENGTH  86400.      1440.0      24.000      1.0000     2.73785E-03
 STRESS PERIOD TIME 2.59200E+05  4320.0      72.000      3.0000     8.21355E-03
         TOTAL TIME 3.45600E+05  5760.0      96.000      4.0000     1.09514E-02
1

 SOLVING FOR HEAD 

    ------------------------------------------------
       NWT REQUIRED            4 OUTER ITERATIONS 
       AND A TOTAL OF          5 INNER ITERATIONS.
    ------------------------------------------------

 OUTPUT CONTROL FOR STRESS PERIOD    2   TIME STEP    4
    SAVE HEAD FOR ALL LAYERS
    SAVE DRAWDOWN FOR ALL LAYERS
    SAVE BUDGET
    PRINT HEAD FOR ALL LAYERS
    PRINT BUDGET
1
              HEAD IN LAYER   1 AT END OF TIME STEP   4 IN STRESS PERIOD    2
  ---------------------------------------------------------------------------

            1           2           3           4           5           6           7           8           9          10
           11          12          13          14          15          16          17          18          19          20
 ........................................................................................................................
   1    0.000       0.000       0.000       0.000       0.000       7.200       7.190       7.212       7.230       7.240    
        7.242       7.236       7.231       7.649       7.238       7.257       7.286       7.304       0.000       0.000    
   2    0.000       0.000       0.000       0.000       7.212       7.196       7.149       7.203       7.224       7.234    
        7.236       7.232       7.228       7.650       7.235       7.247       7.284       7.306       0.000       0.000    
   3    0.000       0.000       0.000       0.000       7.213       7.212       7.205       7.215       7.224       7.230    
        7.231       7.226       7.223       7.631       7.231       7.207       7.283       7.314       0.000       0.000    
   4    0.000       0.000       0.000       7.216       7.224       7.605       7.611       7.622       7.644       7.628    
        7.604       7.462       7.228       7.670       7.251       7.268       7.309       7.334       0.000       0.000    
   5    0.000       0.000       7.259       7.334       7.647       7.489       7.238       7.242       7.244       7.241    
        7.239       7.555       7.690       7.468       7.269       7.303       7.338       7.365       7.389       0.000    
   6    0.000       7.633       7.704       7.595       7.305       7.247       7.257       7.263       7.262       7.257    
        7.258       7.259       7.265       7.271       7.295       7.330       7.363       7.385       7.395       0.000    
   7    0.000       7.251       7.258       7.261       7.265       7.277       7.286       7.286       7.278       7.264    
        7.277       7.286       7.293       7.299       7.309       7.348       7.381       7.402       0.000       0.000    
   8    0.000       7.269       7.284       7.292       7.298       7.305       7.308       7.304       7.287       7.234    
        7.288       7.308       7.317       7.315       7.283       7.358       7.398       7.423       0.000       0.000    
   9    0.000       0.000       7.313       7.317       7.321       7.325       7.325       7.321       7.310       7.297    
        7.313       7.328       7.337       7.342       7.347       7.384       7.418       7.448       7.482       7.499    
  10    0.000       0.000       7.327       7.330       7.333       7.335       7.335       7.331       7.324       7.320    
        7.328       7.339       7.349       7.358       7.371       7.399       7.429       7.458       7.484       7.499    

 HEAD WILL BE SAVED ON UNIT   51 AT END OF TIME STEP    4, STRESS PERIOD    2

 DRAWDOWN WILL BE SAVED ON UNIT   52 AT END OF TIME STEP    4, STRESS PERIOD    2
1
  VOLUMETRIC BUDGET FOR ENTIRE MODEL AT END OF TIME STEP    4, STRESS PERIOD   2
  ------------------------------------------------------------------------------

     CUMULATIVE VOLUMES      L**3       RATES FOR THIS TIME STEP      L**3/T
     ------------------                 ------------------------

           IN:                                      IN:
           ---                                      ---
             STORAGE =         326.5615               STORAGE =          76.9252
       CONSTANT HEAD =           0.0000         CONSTANT HEAD =           0.0000
               WELLS =           0.0000                 WELLS =           0.0000
       RIVER LEAKAGE =      306298.9062         RIVER LEAKAGE =       49984.9570
            RECHARGE =        2829.3535              RECHARGE =         599.7326

            TOTAL IN =      309454.8125              TOTAL IN =       50661.6172

          OUT:                                     OUT:
          ----                                     ----
             STORAGE =      308011.0625               STORAGE =       50407.8320
       CONSTANT HEAD =           0.0000         CONSTANT HEAD =           0.0000
               WELLS =        1180.0514                 WELLS =         254.5907
       RIVER LEAKAGE =         268.8873         RIVER LEAKAGE =           0.0000
            RECHARGE =           0.0000              RECHARGE =           0.0000

           TOTAL OUT =      309460.0000             TOTAL OUT =       50662.4219

            IN - OUT =          -5.1875              IN - OUT =          -0.8047

 PERCENT DISCREPANCY =          -0.00     PERCENT DISCREPANCY =          -0.00






         TIME SUMMARY AT END OF TIME STEP    4 IN STRESS PERIOD    2
                    SECONDS     MINUTES      HOURS       DAYS        YEARS
                    -----------------------------------------------------------
   TIME STEP LENGTH  86400.      1440.0      24.000      1.0000     2.73785E-03
 STRESS PERIOD TIME 3.45600E+05  5760.0      96.000      4.0000     1.09514E-02
         TOTAL TIME 4.32000E+05  7200.0      120.00      5.0000     1.36893E-02
1

 SOLVING FOR HEAD 

    ------------------------------------------------
       NWT REQUIRED            4 OUTER ITERATIONS 
       AND A TOTAL OF          5 INNER ITERATIONS.
    ------------------------------------------------

 OUTPUT CONTROL FOR STRESS PERIOD    2   TIME STEP    5
    SAVE HEAD FOR ALL LAYERS
    SAVE DRAWDOWN FOR ALL LAYERS
    SAVE BUDGET
    PRINT HEAD FOR ALL LAYERS
    PRINT BUDGET
1
              HEAD IN LAYER   1 AT END OF TIME STEP   5 IN STRESS PERIOD    2
  ---------------------------------------------------------------------------

            1           2           3           4           5           6           7           8           9          10
           11          12          13          14          15          16          17          18          19          20
 ........................................................................................................................
   1    0.000       0.000       0.000       0.000       0.000       7.200       7.190       7.212       7.230       7.240    
        7.242       7.236       7.235       7.695       7.242       7.257       7.286       7.304       0.000       0.000    
   2    0.000       0.000       0.000       0.000       7.212       7.196       7.149       7.203       7.225       7.234    
        7.236       7.232       7.232       7.697       7.239       7.247       7.284       7.306       0.000       0.000    
   3    0.000       0.000       0.000       0.000       7.213       7.215       7.210       7.219       7.227       7.232    
        7.233       7.228       7.225       7.680       7.233       7.206       7.283       7.314       0.000       0.000    
   4    0.000       0.000       0.000       7.217       7.229       7.655       7.659       7.671       7.692       7.677    
        7.653       7.508       7.234       7.716       7.253       7.268       7.309       7.334       0.000       0.000    
   5    0.000       0.000       7.273       7.362       7.694       7.537       7.244       7.245       7.246       7.244    
        7.244       7.605       7.733       7.514       7.271       7.303       7.338       7.365       7.389       0.000    
   6    0.000       7.683       7.746       7.645       7.326       7.249       7.258       7.263       7.262       7.258    
        7.258       7.262       7.268       7.272       7.295       7.330       7.363       7.385       7.395       0.000    
   7    0.000       7.254       7.261       7.264       7.266       7.277       7.286       7.286       7.278       7.264    
        7.277       7.286       7.293       7.299       7.309       7.348       7.381       7.402       0.000       0.000    
   8    0.000       7.269       7.284       7.292       7.298       7.305       7.308       7.304       7.287       7.234    
        7.288       7.308       7.317       7.315       7.282       7.358       7.398       7.423       0.000       0.000    
   9    0.000       0.000       7.313       7.317       7.321       7.325       7.326       7.321       7.310       7.297    
        7.313       7.328       7.337       7.342       7.347       7.384       7.418       7.448       7.482       7.499    
  10    0.000       0.000       7.327       7.330       7.333       7.335       7.335       7.331       7.324       7.320    
        7.328       7.339       7.349       7.358       7.371       7.399       7.429       7.458       7.484       7.499    

 HEAD WILL BE SAVED ON UNIT   51 AT END OF TIME STEP    5, STRESS PERIOD    2

 DRAWDOWN WILL BE SAVED ON UNIT   52 AT END OF TIME STEP    5, STRESS PERIOD    2
1
  VOLUMETRIC BUDGET FOR ENTIRE MODEL AT END OF TIME STEP    5, STRESS PERIOD   2
  ------------------------------------------------------------------------------

     CUMULATIVE VOLUMES      L**3       RATES FOR THIS TIME STEP      L**3/T
     ------------------                 ------------------------

           IN:                                      IN:
           ---                                      ---
             STORAGE =         400.1445               STORAGE =          73.5831
       CONSTANT HEAD =           0.0000         CONSTANT HEAD =           0.0000
               WELLS =           0.0000                 WELLS =           0.0000
       RIVER LEAKAGE =      345760.0000         RIVER LEAKAGE =       39461.1094
            RECHARGE =        3429.0862              RECHARGE =         599.7326

            TOTAL IN =      349589.2500              TOTAL IN =       40134.4258

          OUT:                                     OUT:
          ----                                     ----
             STORAGE =      347891.5312               STORAGE =       39880.4648
       CONSTANT HEAD =           0.0000         CONSTANT HEAD =           0.0000
               WELLS =        1434.6421                 WELLS =         254.5907
       RIVER LEAKAGE =         268.8873         RIVER LEAKAGE =           0.0000
            RECHARGE =           0.0000              RECHARGE =           0.0000

           TOTAL OUT =      349595.0625             TOTAL OUT =       40135.0547

            IN - OUT =          -5.8125              IN - OUT =          -0.6289

 PERCENT DISCREPANCY =          -0.00     PERCENT DISCREPANCY =          -0.00






         TIME SUMMARY AT END OF TIME STEP    5 IN STRESS PERIOD    2
                    SECONDS     MINUTES      HOURS       DAYS        YEARS
                    -----------------------------------------------------------
   TIME STEP LENGTH  86400.      1440.0      24.000      1.0000     2.73785E-03
 STRESS PERIOD TIME 4.32000E+05  7200.0      120.00      5.0000     1.36893E-02
         TOTAL TIME 5.18400E+05  8640.0      144.00      6.0000     1.64271E-02
1

 SOLVING FOR HEAD 

    ------------------------------------------------
       NWT REQUIRED            4 OUTER ITERATIONS 
       AND A TOTAL OF          5 INNER ITERATIONS.
    ------------------------------------------------

 OUTPUT CONTROL FOR STRESS PERIOD    2   TIME STEP    6
    SAVE HEAD FOR ALL LAYERS
    SAVE DRAWDOWN FOR ALL LAYERS
    SAVE BUDGET
    PRINT HEAD FOR ALL LAYERS
    PRINT BUDGET
1
              HEAD IN LAYER   1 AT END OF TIME STEP   6 IN STRESS PERIOD    2
  ---------------------------------------------------------------------------

            1           2           3           4           5           6           7           8           9          10
           11          12          13          14          15          16          17          18          19          20
 ........................................................................................................................
   1    0.000       0.000       0.000       0.000       0.000       7.200       7.190       7.212       7.230       7.240    
        7.242       7.236       7.240       7.729       7.247       7.258       7.286       7.304       0.000       0.000    
   2    0.000       0.000       0.000       0.000       7.212       7.196       7.149       7.203       7.225       7.234    
        7.236       7.232       7.235       7.731       7.242       7.247       7.284       7.306       0.000       0.000    
   3    0.000       0.000       0.000       0.000       7.214       7.218       7.214       7.223       7.230       7.235    
        7.236       7.230       7.228       7.717       7.236       7.206       7.283       7.314       0.000       0.000    
   4    0.000       0.000       0.000       7.218       7.235       7.693       7.696       7.707       7.728       7.714    
        7.692       7.547       7.241       7.748       7.256       7.268       7.309       7.334       0.000       0.000    
   5    0.000       0.000       7.287       7.389       7.728       7.578       7.249       7.248       7.249       7.247    
        7.248       7.646       7.762       7.554       7.272       7.303       7.338       7.365       7.389       0.000    
   6    0.000       7.721       7.773       7.684       7.347       7.252       7.258       7.263       7.262       7.258    
        7.258       7.264       7.271       7.274       7.296       7.330       7.363       7.385       7.395       0.000    
   7    0.000       7.257       7.264       7.266       7.266       7.277       7.286       7.286       7.278       7.264    
        7.277       7.286       7.293       7.299       7.309       7.348       7.381       7.402       0.000       0.000    
   8    0.000       7.269       7.284       7.292       7.298       7.305       7.308       7.304       7.287       7.233    
        7.288       7.308       7.317       7.315       7.281       7.358       7.398       7.423       0.000       0.000    
   9    0.000       0.000       7.313       7.317       7.321       7.325       7.326       7.321       7.310       7.297    
        7.313       7.328       7.337       7.342       7.347       7.384       7.418       7.448       7.482       7.499    
  10    0.000       0.000       7.327       7.330       7.333       7.335       7.335       7.331       7.324       7.320    
        7.328       7.339       7.349       7.358       7.371       7.399       7.429       7.458       7.484       7.499    

 HEAD WILL BE SAVED ON UNIT   51 AT END OF TIME STEP    6, STRESS PERIOD    2

 DRAWDOWN WILL BE SAVED ON UNIT   52 AT END OF TIME STEP    6, STRESS PERIOD    2
1
  VOLUMETRIC BUDGET FOR ENTIRE MODEL AT END OF TIME STEP    6, STRESS PERIOD   2
  ------------------------------------------------------------------------------

     CUMULATIVE VOLUMES      L**3       RATES FOR THIS TIME STEP      L**3/T
     ------------------                 ------------------------

           IN:                                      IN:
           ---                                      ---
             STORAGE =         470.3470               STORAGE =          70.2024
       CONSTANT HEAD =           0.0000         CONSTANT HEAD =           0.0000
               WELLS =           0.0000                 WELLS =           0.0000
       RIVER LEAKAGE =      377346.7500         RIVER LEAKAGE =       31586.7520
            RECHARGE =        4028.8188              RECHARGE =         599.7326

            TOTAL IN =      381845.9062              TOTAL IN =       32256.6875

          OUT:                                     OUT:
          ----                                     ----
             STORAGE =      379894.1250               STORAGE =       32002.5938
       CONSTANT HEAD =           0.0000         CONSTANT HEAD =           0.0000
               WELLS =        1689.2328                 WELLS =         254.5907
       RIVER LEAKAGE =         268.8873         RIVER LEAKAGE =           0.0000
            RECHARGE =           0.0000              RECHARGE =           0.0000

           TOTAL OUT =      381852.2188             TOTAL OUT =       32257.1836

            IN - OUT =          -6.3125              IN - OUT =          -0.4961

 PERCENT DISCREPANCY =          -0.00     PERCENT DISCREPANCY =          -0.00






         TIME SUMMARY AT END OF TIME STEP    6 IN STRESS PERIOD    2
                    SECONDS     MINUTES      HOURS       DAYS        YEARS
                    -----------------------------------------------------------
   TIME STEP LENGTH  86400.      1440.0      24.000      1.0000     2.73785E-03
 STRESS PERIOD TIME 5.18400E+05  8640.0      144.00      6.0000     1.64271E-02
         TOTAL TIME 6.04800E+05  10080.      168.00      7.0000     1.91650E-02
1

 SOLVING FOR HEAD 

    ------------------------------------------------
       NWT REQUIRED            4 OUTER ITERATIONS 
       AND A TOTAL OF          5 INNER ITERATIONS.
    ------------------------------------------------

 OUTPUT CONTROL FOR STRESS PERIOD    2   TIME STEP    7
    SAVE HEAD FOR ALL LAYERS
    SAVE DRAWDOWN FOR ALL LAYERS
    SAVE BUDGET
    PRINT HEAD FOR ALL LAYERS
    PRINT BUDGET
1
              HEAD IN LAYER   1 AT END OF TIME STEP   7 IN STRESS PERIOD    2
  ---------------------------------------------------------------------------

            1           2           3           4           5           6           7           8           9          10
           11          12          13          14          15          16          17          18          19          20
 ........................................................................................................................
   1    0.000       0.000       0.000       0.000       0.000       7.200       7.190       7.212       7.230       7.240    
        7.242       7.236       7.244       7.753       7.252       7.258       7.286       7.304       0.000       0.000    
   2    0.000       0.000       0.000       0.000       7.212       7.197       7.148       7.203       7.225       7.234    
        7.237       7.232       7.239       7.756       7.246       7.247       7.284       7.306       0.000       0.000    
   3    0.000       0.000       0.000       0.000       7.214       7.222       7.219       7.227       7.233       7.238    
        7.239       7.232       7.231       7.745       7.238       7.205       7.283       7.314       0.000       0.000    
   4    0.000       0.000       0.000       7.219       7.240       7.722       7.724       7.735       7.753       7.741    
        7.721       7.582       7.249       7.771       7.258       7.268       7.309       7.334       0.000       0.000    
   5    0.000       0.000       7.300       7.415       7.754       7.613       7.255       7.252       7.253       7.250    
        7.253       7.679       7.783       7.588       7.274       7.303       7.338       7.365       7.389       0.000    
   6    0.000       7.749       7.792       7.714       7.367       7.255       7.258       7.263       7.262       7.258    
        7.258       7.267       7.274       7.276       7.296       7.330       7.363       7.385       7.395       0.000    
   7    0.000       7.260       7.267       7.269       7.267       7.278       7.286       7.286       7.278       7.264    
        7.277       7.286       7.293       7.299       7.309       7.348       7.381       7.402       0.000       0.000    
   8    0.000       7.269       7.284       7.292       7.299       7.305       7.309       7.304       7.287       7.233    
        7.288       7.308       7.317       7.315       7.281       7.358       7.398       7.423       0.000       0.000    
   9    0.000       0.000       7.313       7.317       7.321       7.325       7.326       7.321       7.310       7.297    
        7.313       7.328       7.337       7.342       7.347       7.384       7.418       7.448       7.482       7.499    
  10    0.000       0.000       7.327       7.330       7.333       7.335       7.335       7.331       7.324       7.320    
        7.328       7.339       7.349       7.358       7.371       7.399       7.429       7.458       7.485       7.499    

 HEAD WILL BE SAVED ON UNIT   51 AT END OF TIME STEP    7, STRESS PERIOD    2

 DRAWDOWN WILL BE SAVED ON UNIT   52 AT END OF TIME STEP    7, STRESS PERIOD    2
1
  VOLUMETRIC BUDGET FOR ENTIRE MODEL AT END OF TIME STEP    7, STRESS PERIOD   2
  ------------------------------------------------------------------------------

     CUMULATIVE VOLUMES      L**3       RATES FOR THIS TIME STEP      L**3/T
     ------------------                 ------------------------

           IN:                                      IN:
           ---                                      ---
             STORAGE =         537.1636               STORAGE =          66.8167
       CONSTANT HEAD =           0.0000         CONSTANT HEAD =           0.0000
               WELLS =           0.0000                 WELLS =           0.0000
       RIVER LEAKAGE =      403011.1875         RIVER LEAKAGE =       25664.4531
            RECHARGE =        4628.5513              RECHARGE =         599.7326

            TOTAL IN =      408176.9062              TOTAL IN =       26331.0020

          OUT:                                     OUT:
          ----                                     ----
             STORAGE =      405970.9375               STORAGE =       26076.8105
       CONSTANT HEAD =           0.0000         CONSTANT HEAD =           0.0000
               WELLS =        1943.8235                 WELLS =         254.5907
       RIVER LEAKAGE =         268.8873         RIVER LEAKAGE =           0.0000
            RECHARGE =           0.0000              RECHARGE =           0.0000

           TOTAL OUT =      408183.6250             TOTAL OUT =       26331.4004

            IN - OUT =          -6.7188              IN - OUT =          -0.3984

 PERCENT DISCREPANCY =          -0.00     PERCENT DISCREPANCY =          -0.00






         TIME SUMMARY AT END OF TIME STEP    7 IN STRESS PERIOD    2
                    SECONDS     MINUTES      HOURS       DAYS        YEARS
                    -----------------------------------------------------------
   TIME STEP LENGTH  86400.      1440.0      24.000      1.0000     2.73785E-03
 STRESS PERIOD TIME 6.04800E+05  10080.      168.00      7.0000     1.91650E-02
         TOTAL TIME 6.91200E+05  11520.      192.00      8.0000     2.19028E-02
1

 SOLVING FOR HEAD 

    ------------------------------------------------
       NWT REQUIRED            4 OUTER ITERATIONS 
       AND A TOTAL OF          4 INNER ITERATIONS.
    ------------------------------------------------

 OUTPUT CONTROL FOR STRESS PERIOD    2   TIME STEP    8
    SAVE HEAD FOR ALL LAYERS
    SAVE DRAWDOWN FOR ALL LAYERS
    SAVE BUDGET
    PRINT HEAD FOR ALL LAYERS
    PRINT BUDGET
1
              HEAD IN LAYER   1 AT END OF TIME STEP   8 IN STRESS PERIOD    2
  ---------------------------------------------------------------------------

            1           2           3           4           5           6           7           8           9          10
           11          12          13          14          15          16          17          18          19          20
 ........................................................................................................................
   1    0.000       0.000       0.000       0.000       0.000       7.200       7.190       7.212       7.230       7.240    
        7.242       7.236       7.249       7.771       7.256       7.258       7.286       7.304       0.000       0.000    
   2    0.000       0.000       0.000       0.000       7.212       7.197       7.148       7.203       7.225       7.235    
        7.237       7.232       7.243       7.774       7.250       7.247       7.284       7.306       0.000       0.000    
   3    0.000       0.000       0.000       0.000       7.214       7.225       7.224       7.231       7.236       7.241    
        7.242       7.234       7.234       7.766       7.241       7.205       7.283       7.314       0.000       0.000    
   4    0.000       0.000       0.000       7.221       7.246       7.744       7.745       7.755       7.773       7.762    
        7.744       7.612       7.256       7.788       7.261       7.269       7.309       7.334       0.000       0.000    
   5    0.000       0.000       7.314       7.439       7.772       7.642       7.261       7.256       7.256       7.253    
        7.258       7.705       7.797       7.618       7.276       7.303       7.338       7.365       7.389       0.000    
   6    0.000       7.771       7.805       7.738       7.386       7.258       7.258       7.264       7.262       7.258    
        7.258       7.269       7.277       7.279       7.296       7.330       7.363       7.385       7.395       0.000    
   7    0.000       7.263       7.271       7.272       7.268       7.278       7.286       7.286       7.278       7.264    
        7.277       7.287       7.293       7.299       7.309       7.348       7.381       7.402       0.000       0.000    
   8    0.000       7.269       7.285       7.292       7.299       7.305       7.309       7.304       7.287       7.232    
        7.288       7.308       7.317       7.315       7.280       7.358       7.398       7.423       0.000       0.000    
   9    0.000       0.000       7.313       7.317       7.321       7.325       7.326       7.321       7.311       7.297    
        7.313       7.328       7.337       7.343       7.347       7.384       7.418       7.449       7.482       7.499    
  10    0.000       0.000       7.327       7.330       7.333       7.335       7.335       7.331       7.324       7.320    
        7.328       7.339       7.349       7.358       7.371       7.399       7.429       7.458       7.485       7.499    

 HEAD WILL BE SAVED ON UNIT   51 AT END OF TIME STEP    8, STRESS PERIOD    2

 DRAWDOWN WILL BE SAVED ON UNIT   52 AT END OF TIME STEP    8, STRESS PERIOD    2
1
  VOLUMETRIC BUDGET FOR ENTIRE MODEL AT END OF TIME STEP    8, STRESS PERIOD   2
  ------------------------------------------------------------------------------

     CUMULATIVE VOLUMES      L**3       RATES FOR THIS TIME STEP      L**3/T
     ------------------                 ------------------------

           IN:                                      IN:
           ---                                      ---
             STORAGE =         600.6136               STORAGE =          63.4500
       CONSTANT HEAD =           0.0000         CONSTANT HEAD =           0.0000
               WELLS =           0.0000                 WELLS =           0.0000
       RIVER LEAKAGE =      424196.8125         RIVER LEAKAGE =       21185.6289
            RECHARGE =        5228.2837              RECHARGE =         599.7326

            TOTAL IN =      430025.7188              TOTAL IN =       21848.8105

          OUT:                                     OUT:
          ----                                     ----
             STORAGE =      427565.4688               STORAGE =       21594.5449
       CONSTANT HEAD =           0.0000         CONSTANT HEAD =           0.0000
               WELLS =        2198.4141                 WELLS =         254.5907
       RIVER LEAKAGE =         268.8873         RIVER LEAKAGE =           0.0000
            RECHARGE =           0.0000              RECHARGE =           0.0000

           TOTAL OUT =      430032.7500             TOTAL OUT =       21849.1348

            IN - OUT =          -7.0312              IN - OUT =          -0.3242

 PERCENT DISCREPANCY =          -0.00     PERCENT DISCREPANCY =          -0.00






         TIME SUMMARY AT END OF TIME STEP    8 IN STRESS PERIOD    2
                    SECONDS     MINUTES      HOURS       DAYS        YEARS
                    -----------------------------------------------------------
   TIME STEP LENGTH  86400.      1440.0      24.000      1.0000     2.73785E-03
 STRESS PERIOD TIME 6.91200E+05  11520.      192.00      8.0000     2.19028E-02
         TOTAL TIME 7.77600E+05  12960.      216.00      9.0000     2.46407E-02
1

 SOLVING FOR HEAD 

    ------------------------------------------------
       NWT REQUIRED            4 OUTER ITERATIONS 
       AND A TOTAL OF          4 INNER ITERATIONS.
    ------------------------------------------------

 OUTPUT CONTROL FOR STRESS PERIOD    2   TIME STEP    9
    SAVE HEAD FOR ALL LAYERS
    SAVE DRAWDOWN FOR ALL LAYERS
    SAVE BUDGET
    PRINT HEAD FOR ALL LAYERS
    PRINT BUDGET
1
              HEAD IN LAYER   1 AT END OF TIME STEP   9 IN STRESS PERIOD    2
  ---------------------------------------------------------------------------

            1           2           3           4           5           6           7           8           9          10
           11          12          13          14          15          16          17          18          19          20
 ........................................................................................................................
   1    0.000       0.000       0.000       0.000       0.000       7.200       7.190       7.212       7.230       7.240    
        7.242       7.236       7.254       7.784       7.261       7.258       7.286       7.304       0.000       0.000    
   2    0.000       0.000       0.000       0.000       7.212       7.197       7.148       7.204       7.225       7.235    
        7.237       7.233       7.247       7.787       7.254       7.247       7.284       7.306       0.000       0.000    
   3    0.000       0.000       0.000       0.000       7.215       7.229       7.229       7.235       7.239       7.244    
        7.245       7.237       7.237       7.781       7.244       7.205       7.283       7.314       0.000       0.000    
   4    0.000       0.000       0.000       7.222       7.252       7.761       7.761       7.771       7.787       7.777    
        7.762       7.638       7.264       7.800       7.264       7.269       7.309       7.334       0.000       0.000    
   5    0.000       0.000       7.327       7.461       7.786       7.667       7.267       7.259       7.259       7.256    
        7.264       7.727       7.807       7.644       7.278       7.303       7.338       7.365       7.389       0.000    
   6    0.000       7.786       7.814       7.756       7.405       7.261       7.259       7.264       7.263       7.258    
        7.259       7.272       7.280       7.281       7.296       7.330       7.363       7.385       7.395       0.000    
   7    0.000       7.266       7.274       7.275       7.270       7.278       7.286       7.286       7.278       7.264    
        7.277       7.287       7.293       7.299       7.309       7.348       7.381       7.402       0.000       0.000    
   8    0.000       7.269       7.285       7.292       7.299       7.306       7.309       7.304       7.287       7.232    
        7.288       7.308       7.317       7.315       7.280       7.358       7.398       7.423       0.000       0.000    
   9    0.000       0.000       7.313       7.317       7.321       7.325       7.326       7.321       7.311       7.297    
        7.313       7.328       7.337       7.343       7.347       7.384       7.418       7.449       7.482       7.499    
  10    0.000       0.000       7.327       7.330       7.333       7.335       7.335       7.331       7.324       7.320    
        7.328       7.339       7.349       7.358       7.371       7.399       7.429       7.458       7.485       7.499    

 HEAD WILL BE SAVED ON UNIT   51 AT END OF TIME STEP    9, STRESS PERIOD    2

 DRAWDOWN WILL BE SAVED ON UNIT   52 AT END OF TIME STEP    9, STRESS PERIOD    2
1
  VOLUMETRIC BUDGET FOR ENTIRE MODEL AT END OF TIME STEP    9, STRESS PERIOD   2
  ------------------------------------------------------------------------------

     CUMULATIVE VOLUMES      L**3       RATES FOR THIS TIME STEP      L**3/T
     ------------------                 ------------------------

           IN:                                      IN:
           ---                                      ---
             STORAGE =         660.7358               STORAGE =          60.1222
       CONSTANT HEAD =           0.0000         CONSTANT HEAD =           0.0000
               WELLS =           0.0000                 WELLS =           0.0000
       RIVER LEAKAGE =      441975.0938         RIVER LEAKAGE =       17778.2871
            RECHARGE =        5828.0161              RECHARGE =         599.7326

            TOTAL IN =      448463.8750              TOTAL IN =       18438.1426

          OUT:                                     OUT:
          ----                                     ----
             STORAGE =      445749.2812               STORAGE =       18183.8203
       CONSTANT HEAD =           0.0000         CONSTANT HEAD =           0.0000
               WELLS =        2453.0046                 WELLS =         254.5907
       RIVER LEAKAGE =         268.8873         RIVER LEAKAGE =           0.0000
            RECHARGE =           0.0000              RECHARGE =           0.0000

           TOTAL OUT =      448471.1562             TOTAL OUT =       18438.4102

            IN - OUT =          -7.2812              IN - OUT =          -0.2676

 PERCENT DISCREPANCY =          -0.00     PERCENT DISCREPANCY =          -0.00






         TIME SUMMARY AT END OF TIME STEP    9 IN STRESS PERIOD    2
                    SECONDS     MINUTES      HOURS       DAYS        YEARS
                    -----------------------------------------------------------
   TIME STEP LENGTH  86400.      1440.0      24.000      1.0000     2.73785E-03
 STRESS PERIOD TIME 7.77600E+05  12960.      216.00      9.0000     2.46407E-02
         TOTAL TIME 8.64000E+05  14400.      240.00      10.000     2.73785E-02
1

 SOLVING FOR HEAD 

    ------------------------------------------------
       NWT REQUIRED            4 OUTER ITERATIONS 
       AND A TOTAL OF          4 INNER ITERATIONS.
    ------------------------------------------------

 OUTPUT CONTROL FOR STRESS PERIOD    2   TIME STEP   10
    SAVE HEAD FOR ALL LAYERS
    SAVE DRAWDOWN FOR ALL LAYERS
    SAVE BUDGET
    PRINT HEAD FOR ALL LAYERS
    PRINT BUDGET
1
              HEAD IN LAYER   1 AT END OF TIME STEP  10 IN STRESS PERIOD    2
  ---------------------------------------------------------------------------

            1           2           3           4           5           6           7           8           9          10
           11          12          13          14          15          16          17          18          19          20
 ........................................................................................................................
   1    0.000       0.000       0.000       0.000       0.000       7.200       7.190       7.212       7.230       7.240    
        7.242       7.236       7.259       7.793       7.266       7.258       7.286       7.304       0.000       0.000    
   2    0.000       0.000       0.000       0.000       7.212       7.197       7.148       7.204       7.225       7.235    
        7.237       7.233       7.251       7.797       7.258       7.247       7.284       7.306       0.000       0.000    
   3    0.000       0.000       0.000       0.000       7.215       7.233       7.234       7.240       7.243       7.248    
        7.248       7.239       7.240       7.793       7.246       7.204       7.283       7.314       0.000       0.000    
   4    0.000       0.000       0.000       7.224       7.258       7.774       7.773       7.783       7.797       7.789    
        7.775       7.660       7.271       7.808       7.266       7.269       7.309       7.334       0.000       0.000    
   5    0.000       0.000       7.340       7.482       7.796       7.689       7.274       7.263       7.262       7.260    
        7.269       7.744       7.813       7.666       7.280       7.303       7.338       7.365       7.389       0.000    
   6    0.000       7.798       7.819       7.771       7.422       7.265       7.259       7.264       7.263       7.258    
        7.259       7.275       7.284       7.284       7.296       7.330       7.363       7.385       7.395       0.000    
   7    0.000       7.270       7.277       7.278       7.271       7.278       7.286       7.286       7.278       7.264    
        7.277       7.287       7.293       7.299       7.309       7.348       7.381       7.402       0.000       0.000    
   8    0.000       7.270       7.285       7.292       7.299       7.306       7.309       7.304       7.287       7.231    
        7.288       7.308       7.317       7.315       7.280       7.358       7.398       7.423       0.000       0.000    
   9    0.000       0.000       7.313       7.317       7.321       7.325       7.326       7.321       7.311       7.297    
        7.313       7.328       7.337       7.343       7.347       7.384       7.418       7.449       7.482       7.499    
  10    0.000       0.000       7.327       7.330       7.333       7.335       7.335       7.331       7.324       7.320    
        7.328       7.339       7.349       7.358       7.371       7.399       7.429       7.458       7.485       7.499    

 HEAD WILL BE SAVED ON UNIT   51 AT END OF TIME STEP   10, STRESS PERIOD    2

 DRAWDOWN WILL BE SAVED ON UNIT   52 AT END OF TIME STEP   10, STRESS PERIOD    2
1
  VOLUMETRIC BUDGET FOR ENTIRE MODEL AT END OF TIME STEP   10, STRESS PERIOD   2
  ------------------------------------------------------------------------------

     CUMULATIVE VOLUMES      L**3       RATES FOR THIS TIME STEP      L**3/T
     ------------------                 ------------------------

           IN:                                      IN:
           ---                                      ---
             STORAGE =         717.6392               STORAGE =          56.9034
       CONSTANT HEAD =           0.0000         CONSTANT HEAD =           0.0000
               WELLS =           0.0000                 WELLS =           0.0000
       RIVER LEAKAGE =      457144.5312         RIVER LEAKAGE =       15169.4395
            RECHARGE =        6427.7485              RECHARGE =         599.7326

            TOTAL IN =      464289.9062              TOTAL IN =       15826.0752

          OUT:                                     OUT:
          ----                                     ----
             STORAGE =      461321.0000               STORAGE =       15571.7109
       CONSTANT HEAD =           0.0000         CONSTANT HEAD =           0.0000
               WELLS =        2707.5952                 WELLS =         254.5907
       RIVER LEAKAGE =         268.8873         RIVER LEAKAGE =           0.0000
            RECHARGE =           0.0000              RECHARGE =           0.0000

           TOTAL OUT =      464297.4688             TOTAL OUT =       15826.3018

            IN - OUT =          -7.5625              IN - OUT =          -0.2266

 PERCENT DISCREPANCY =          -0.00     PERCENT DISCREPANCY =          -0.00






         TIME SUMMARY AT END OF TIME STEP   10 IN STRESS PERIOD    2
                    SECONDS     MINUTES      HOURS       DAYS        YEARS
                    -----------------------------------------------------------
   TIME STEP LENGTH  86400.      1440.0      24.000      1.0000     2.73785E-03
 STRESS PERIOD TIME 8.64000E+05  14400.      240.00      10.000     2.73785E-02
         TOTAL TIME 9.50400E+05  15840.      264.00      11.000     3.01164E-02
1

 SOLVING FOR HEAD 

    ------------------------------------------------
       NWT REQUIRED            3 OUTER ITERATIONS 
       AND A TOTAL OF          3 INNER ITERATIONS.
    ------------------------------------------------

 OUTPUT CONTROL FOR STRESS PERIOD    2   TIME STEP   11
    SAVE HEAD FOR ALL LAYERS
    SAVE DRAWDOWN FOR ALL LAYERS
    SAVE BUDGET
    PRINT HEAD FOR ALL LAYERS
    PRINT BUDGET
1
              HEAD IN LAYER   1 AT END OF TIME STEP  11 IN STRESS PERIOD    2
  ---------------------------------------------------------------------------

            1           2           3           4           5           6           7           8           9          10
           11          12          13          14          15          16          17          18          19          20
 ........................................................................................................................
   1    0.000       0.000       0.000       0.000       0.000       7.200       7.190       7.212       7.230       7.240    
        7.242       7.237       7.263       7.800       7.271       7.259       7.286       7.304       0.000       0.000    
   2    0.000       0.000       0.000       0.000       7.212       7.197       7.147       7.204       7.225       7.235    
        7.237       7.233       7.255       7.804       7.262       7.247       7.284       7.306       0.000       0.000    
   3    0.000       0.000       0.000       0.000       7.216       7.236       7.239       7.244       7.246       7.251    
        7.251       7.242       7.243       7.802       7.249       7.204       7.283       7.314       0.000       0.000    
   4    0.000       0.000       0.000       7.226       7.264       7.785       7.782       7.791       7.804       7.798    
        7.786       7.680       7.279       7.814       7.269       7.269       7.309       7.335       0.000       0.000    
   5    0.000       0.000       7.353       7.502       7.804       7.707       7.280       7.267       7.265       7.263    
        7.274       7.758       7.818       7.686       7.282       7.303       7.338       7.365       7.389       0.000    
   6    0.000       7.807       7.823       7.782       7.439       7.268       7.260       7.264       7.263       7.258    
        7.259       7.278       7.287       7.286       7.296       7.330       7.363       7.385       7.395       0.000    
   7    0.000       7.273       7.281       7.281       7.272       7.278       7.286       7.286       7.278       7.264    
        7.277       7.287       7.294       7.299       7.309       7.348       7.381       7.402       0.000       0.000    
   8    0.000       7.270       7.285       7.292       7.299       7.306       7.309       7.304       7.287       7.231    
        7.288       7.308       7.317       7.315       7.279       7.358       7.398       7.423       0.000       0.000    
   9    0.000       0.000       7.313       7.317       7.321       7.325       7.326       7.321       7.311       7.297    
        7.314       7.328       7.337       7.343       7.347       7.384       7.418       7.449       7.482       7.499    
  10    0.000       0.000       7.327       7.330       7.333       7.335       7.335       7.331       7.325       7.320    
        7.328       7.339       7.349       7.358       7.371       7.399       7.429       7.458       7.485       7.499    

 HEAD WILL BE SAVED ON UNIT   51 AT END OF TIME STEP   11, STRESS PERIOD    2

 DRAWDOWN WILL BE SAVED ON UNIT   52 AT END OF TIME STEP   11, STRESS PERIOD    2
1
  VOLUMETRIC BUDGET FOR ENTIRE MODEL AT END OF TIME STEP   11, STRESS PERIOD   2
  ------------------------------------------------------------------------------

     CUMULATIVE VOLUMES      L**3       RATES FOR THIS TIME STEP      L**3/T
     ------------------                 ------------------------

           IN:                                      IN:
           ---                                      ---
             STORAGE =         771.5066               STORAGE =          53.8675
       CONSTANT HEAD =           0.0000         CONSTANT HEAD =           0.0000
               WELLS =           0.0000                 WELLS =           0.0000
       RIVER LEAKAGE =      470302.1562         RIVER LEAKAGE =       13157.6396
            RECHARGE =        7027.4810              RECHARGE =         599.7326

            TOTAL IN =      478101.1250              TOTAL IN =       13811.2393

          OUT:                                     OUT:
          ----                                     ----
             STORAGE =      474881.5312               STORAGE =       13560.5273
       CONSTANT HEAD =           0.0000         CONSTANT HEAD =           0.0000
[...]
  10    0.000       0.000       7.340       7.341       7.341       7.341       7.338       7.333       7.325       7.319    
        7.329       7.342       7.352       7.360       7.371       7.399       7.430       7.460       7.486       7.500    

 HEAD WILL BE SAVED ON UNIT   51 AT END OF TIME STEP   97, STRESS PERIOD    3

 DRAWDOWN WILL BE SAVED ON UNIT   52 AT END OF TIME STEP   97, STRESS PERIOD    3
1
  VOLUMETRIC BUDGET FOR ENTIRE MODEL AT END OF TIME STEP   97, STRESS PERIOD   3
  ------------------------------------------------------------------------------

     CUMULATIVE VOLUMES      L**3       RATES FOR THIS TIME STEP      L**3/T
     ------------------                 ------------------------

           IN:                                      IN:
           ---                                      ---
             STORAGE =       15271.3496               STORAGE =           5.6223
       CONSTANT HEAD =           0.0000         CONSTANT HEAD =           0.0000
               WELLS =           0.0000                 WELLS =           0.0000
       RIVER LEAKAGE =     1058125.1250         RIVER LEAKAGE =        1869.1392
            RECHARGE =       95804.2656              RECHARGE =         364.9565

            TOTAL IN =     1169200.7500              TOTAL IN =        2239.7180

          OUT:                                     OUT:
          ----                                     ----
             STORAGE =     1125276.8750               STORAGE =        2060.9038
       CONSTANT HEAD =           0.0000         CONSTANT HEAD =           0.0000
               WELLS =       43015.5625                 WELLS =         179.3290
       RIVER LEAKAGE =        1080.1012         RIVER LEAKAGE =           0.0000
            RECHARGE =           0.0000              RECHARGE =           0.0000

           TOTAL OUT =     1169372.6250             TOTAL OUT =        2240.2329

            IN - OUT =        -171.8750              IN - OUT =          -0.5149

 PERCENT DISCREPANCY =          -0.01     PERCENT DISCREPANCY =          -0.02






         TIME SUMMARY AT END OF TIME STEP   97 IN STRESS PERIOD    3
                    SECONDS     MINUTES      HOURS       DAYS        YEARS
                    -----------------------------------------------------------
   TIME STEP LENGTH  86400.      1440.0      24.000      1.0000     2.73785E-03
 STRESS PERIOD TIME 8.38080E+06 1.39680E+05  2328.0      97.000     0.26557    
         TOTAL TIME 1.71072E+07 2.85120E+05  4752.0      198.00     0.54209    
1

 SOLVING FOR HEAD 

    ------------------------------------------------
       NWT REQUIRED            3 OUTER ITERATIONS 
       AND A TOTAL OF          3 INNER ITERATIONS.
    ------------------------------------------------

 OUTPUT CONTROL FOR STRESS PERIOD    3   TIME STEP   98
    SAVE HEAD FOR ALL LAYERS
    SAVE DRAWDOWN FOR ALL LAYERS
    SAVE BUDGET
    PRINT HEAD FOR ALL LAYERS
    PRINT BUDGET
1
              HEAD IN LAYER   1 AT END OF TIME STEP  98 IN STRESS PERIOD    3
  ---------------------------------------------------------------------------

            1           2           3           4           5           6           7           8           9          10
           11          12          13          14          15          16          17          18          19          20
 ........................................................................................................................
   1    0.000       0.000       0.000       0.000       0.000       7.251       7.247       7.269       7.282       7.295    
        7.322       7.407       7.624       7.817       7.616       7.394       7.324       7.314       0.000       0.000    
   2    0.000       0.000       0.000       0.000       7.322       7.329       7.306       7.356       7.358       7.365    
        7.384       7.449       7.619       7.818       7.580       7.367       7.316       7.314       0.000       0.000    
   3    0.000       0.000       0.000       0.000       7.448       7.529       7.562       7.562       7.543       7.540    
        7.547       7.576       7.649       7.820       7.527       7.305       7.309       7.320       0.000       0.000    
   4    0.000       0.000       0.000       7.642       7.653       7.817       7.814       7.816       7.818       7.818    
        7.818       7.815       7.751       7.822       7.524       7.359       7.332       7.341       0.000       0.000    
   5    0.000       0.000       7.824       7.811       7.823       7.815       7.672       7.602       7.569       7.576    
        7.637       7.816       7.822       7.806       7.504       7.378       7.356       7.370       7.391       0.000    
   6    0.000       7.822       7.824       7.820       7.773       7.603       7.485       7.424       7.399       7.401    
        7.447       7.530       7.550       7.524       7.416       7.370       7.373       7.388       7.397       0.000    
   7    0.000       7.566       7.564       7.555       7.517       7.438       7.376       7.342       7.321       7.308    
        7.342       7.384       7.400       7.387       7.349       7.362       7.386       7.404       0.000       0.000    
   8    0.000       7.422       7.411       7.405       7.390       7.361       7.338       7.320       7.295       7.238    
        7.303       7.336       7.347       7.337       7.286       7.359       7.399       7.424       0.000       0.000    
   9    0.000       0.000       7.352       7.352       7.349       7.342       7.334       7.325       7.311       7.295    
        7.316       7.335       7.345       7.347       7.346       7.383       7.419       7.450       7.484       7.500    
  10    0.000       0.000       7.340       7.341       7.342       7.341       7.338       7.333       7.325       7.319    
        7.329       7.342       7.352       7.360       7.371       7.399       7.430       7.460       7.486       7.500    

 HEAD WILL BE SAVED ON UNIT   51 AT END OF TIME STEP   98, STRESS PERIOD    3

 DRAWDOWN WILL BE SAVED ON UNIT   52 AT END OF TIME STEP   98, STRESS PERIOD    3
1
  VOLUMETRIC BUDGET FOR ENTIRE MODEL AT END OF TIME STEP   98, STRESS PERIOD   3
  ------------------------------------------------------------------------------

     CUMULATIVE VOLUMES      L**3       RATES FOR THIS TIME STEP      L**3/T
     ------------------                 ------------------------

           IN:                                      IN:
           ---                                      ---
             STORAGE =       15276.8994               STORAGE =           5.5500
       CONSTANT HEAD =           0.0000         CONSTANT HEAD =           0.0000
               WELLS =           0.0000                 WELLS =           0.0000
       RIVER LEAKAGE =     1059988.6250         RIVER LEAKAGE =        1863.5326
            RECHARGE =       96169.2188              RECHARGE =         364.9565

            TOTAL IN =     1171434.7500              TOTAL IN =        2234.0391

          OUT:                                     OUT:
          ----                                     ----
             STORAGE =     1127332.1250               STORAGE =        2055.2236
       CONSTANT HEAD =           0.0000         CONSTANT HEAD =           0.0000
               WELLS =       43194.8906                 WELLS =         179.3290
       RIVER LEAKAGE =        1080.1012         RIVER LEAKAGE =           0.0000
            RECHARGE =           0.0000              RECHARGE =           0.0000

           TOTAL OUT =     1171607.1250             TOTAL OUT =        2234.5527

            IN - OUT =        -172.3750              IN - OUT =          -0.5137

 PERCENT DISCREPANCY =          -0.01     PERCENT DISCREPANCY =          -0.02






         TIME SUMMARY AT END OF TIME STEP   98 IN STRESS PERIOD    3
                    SECONDS     MINUTES      HOURS       DAYS        YEARS
                    -----------------------------------------------------------
   TIME STEP LENGTH  86400.      1440.0      24.000      1.0000     2.73785E-03
 STRESS PERIOD TIME 8.46720E+06 1.41120E+05  2352.0      98.000     0.26831    
         TOTAL TIME 1.71936E+07 2.86560E+05  4776.0      199.00     0.54483    
1

 SOLVING FOR HEAD 

    ------------------------------------------------
       NWT REQUIRED            3 OUTER ITERATIONS 
       AND A TOTAL OF          3 INNER ITERATIONS.
    ------------------------------------------------

 OUTPUT CONTROL FOR STRESS PERIOD    3   TIME STEP   99
    SAVE HEAD FOR ALL LAYERS
    SAVE DRAWDOWN FOR ALL LAYERS
    SAVE BUDGET
    PRINT HEAD FOR ALL LAYERS
    PRINT BUDGET
1
              HEAD IN LAYER   1 AT END OF TIME STEP  99 IN STRESS PERIOD    3
  ---------------------------------------------------------------------------

            1           2           3           4           5           6           7           8           9          10
           11          12          13          14          15          16          17          18          19          20
 ........................................................................................................................
   1    0.000       0.000       0.000       0.000       0.000       7.252       7.247       7.270       7.283       7.295    
        7.322       7.408       7.625       7.817       7.617       7.395       7.324       7.314       0.000       0.000    
   2    0.000       0.000       0.000       0.000       7.322       7.330       7.307       7.357       7.359       7.365    
        7.385       7.450       7.620       7.818       7.581       7.368       7.317       7.315       0.000       0.000    
   3    0.000       0.000       0.000       0.000       7.449       7.530       7.562       7.562       7.544       7.541    
        7.548       7.576       7.650       7.820       7.528       7.306       7.309       7.320       0.000       0.000    
   4    0.000       0.000       0.000       7.643       7.654       7.817       7.814       7.816       7.818       7.818    
        7.818       7.815       7.752       7.822       7.524       7.359       7.332       7.341       0.000       0.000    
   5    0.000       0.000       7.824       7.811       7.823       7.815       7.673       7.603       7.570       7.577    
        7.638       7.816       7.822       7.806       7.505       7.378       7.357       7.370       7.391       0.000    
   6    0.000       7.822       7.824       7.820       7.773       7.604       7.485       7.425       7.400       7.402    
        7.448       7.530       7.550       7.525       7.416       7.370       7.374       7.388       7.397       0.000    
   7    0.000       7.567       7.565       7.555       7.517       7.438       7.377       7.343       7.321       7.308    
        7.343       7.385       7.400       7.388       7.349       7.362       7.386       7.404       0.000       0.000    
   8    0.000       7.423       7.411       7.406       7.390       7.362       7.338       7.320       7.295       7.238    
        7.303       7.336       7.348       7.337       7.286       7.359       7.399       7.424       0.000       0.000    
   9    0.000       0.000       7.353       7.352       7.349       7.342       7.334       7.325       7.311       7.295    
        7.316       7.335       7.345       7.347       7.346       7.383       7.419       7.450       7.484       7.500    
  10    0.000       0.000       7.340       7.341       7.342       7.341       7.338       7.333       7.325       7.319    
        7.329       7.342       7.352       7.360       7.371       7.399       7.430       7.460       7.486       7.500    

 HEAD WILL BE SAVED ON UNIT   51 AT END OF TIME STEP   99, STRESS PERIOD    3

 DRAWDOWN WILL BE SAVED ON UNIT   52 AT END OF TIME STEP   99, STRESS PERIOD    3
1
  VOLUMETRIC BUDGET FOR ENTIRE MODEL AT END OF TIME STEP   99, STRESS PERIOD   3
  ------------------------------------------------------------------------------

     CUMULATIVE VOLUMES      L**3       RATES FOR THIS TIME STEP      L**3/T
     ------------------                 ------------------------

           IN:                                      IN:
           ---                                      ---
             STORAGE =       15282.3770               STORAGE =           5.4773
       CONSTANT HEAD =           0.0000         CONSTANT HEAD =           0.0000
               WELLS =           0.0000                 WELLS =           0.0000
       RIVER LEAKAGE =     1061846.6250         RIVER LEAKAGE =        1857.9666
            RECHARGE =       96534.1719              RECHARGE =         364.9565

            TOTAL IN =     1173663.1250              TOTAL IN =        2228.4004

          OUT:                                     OUT:
          ----                                     ----
             STORAGE =     1129381.7500               STORAGE =        2049.5835
       CONSTANT HEAD =           0.0000         CONSTANT HEAD =           0.0000
               WELLS =       43374.2188                 WELLS =         179.3290
       RIVER LEAKAGE =        1080.1012         RIVER LEAKAGE =           0.0000
            RECHARGE =           0.0000              RECHARGE =           0.0000

           TOTAL OUT =     1173836.1250             TOTAL OUT =        2228.9126

            IN - OUT =        -173.0000              IN - OUT =          -0.5122

 PERCENT DISCREPANCY =          -0.01     PERCENT DISCREPANCY =          -0.02






         TIME SUMMARY AT END OF TIME STEP   99 IN STRESS PERIOD    3
                    SECONDS     MINUTES      HOURS       DAYS        YEARS
                    -----------------------------------------------------------
   TIME STEP LENGTH  86400.      1440.0      24.000      1.0000     2.73785E-03
 STRESS PERIOD TIME 8.55360E+06 1.42560E+05  2376.0      99.000     0.27105    
         TOTAL TIME 1.72800E+07 2.88000E+05  4800.0      200.00     0.54757    
1

 SOLVING FOR HEAD 

    ------------------------------------------------
       NWT REQUIRED            3 OUTER ITERATIONS 
       AND A TOTAL OF          3 INNER ITERATIONS.
    ------------------------------------------------

 OUTPUT CONTROL FOR STRESS PERIOD    3   TIME STEP  100
    SAVE HEAD FOR ALL LAYERS
    SAVE DRAWDOWN FOR ALL LAYERS
    SAVE BUDGET
    PRINT HEAD FOR ALL LAYERS
    PRINT BUDGET
1
              HEAD IN LAYER   1 AT END OF TIME STEP 100 IN STRESS PERIOD    3
  ---------------------------------------------------------------------------

            1           2           3           4           5           6           7           8           9          10
           11          12          13          14          15          16          17          18          19          20
 ........................................................................................................................
   1    0.000       0.000       0.000       0.000       0.000       7.252       7.248       7.270       7.283       7.296    
        7.323       7.409       7.626       7.817       7.618       7.395       7.324       7.314       0.000       0.000    
   2    0.000       0.000       0.000       0.000       7.323       7.331       7.308       7.358       7.360       7.366    
        7.386       7.451       7.621       7.818       7.582       7.368       7.317       7.315       0.000       0.000    
   3    0.000       0.000       0.000       0.000       7.450       7.530       7.563       7.563       7.545       7.542    
        7.549       7.577       7.651       7.820       7.529       7.306       7.309       7.321       0.000       0.000    
   4    0.000       0.000       0.000       7.644       7.655       7.817       7.815       7.816       7.818       7.818    
        7.818       7.815       7.753       7.822       7.525       7.360       7.332       7.341       0.000       0.000    
   5    0.000       0.000       7.824       7.811       7.823       7.815       7.673       7.604       7.570       7.577    
        7.639       7.816       7.822       7.806       7.505       7.379       7.357       7.370       7.391       0.000    
   6    0.000       7.822       7.824       7.820       7.773       7.604       7.486       7.426       7.400       7.403    
        7.449       7.531       7.551       7.525       7.417       7.370       7.374       7.388       7.397       0.000    
   7    0.000       7.568       7.566       7.556       7.518       7.439       7.378       7.343       7.322       7.308    
        7.343       7.385       7.401       7.388       7.350       7.362       7.386       7.404       0.000       0.000    
   8    0.000       7.424       7.412       7.407       7.391       7.362       7.339       7.320       7.295       7.238    
        7.304       7.336       7.348       7.337       7.286       7.359       7.399       7.424       0.000       0.000    
   9    0.000       0.000       7.353       7.353       7.349       7.342       7.334       7.325       7.311       7.295    
        7.316       7.335       7.345       7.347       7.346       7.383       7.419       7.450       7.484       7.500    
  10    0.000       0.000       7.340       7.341       7.342       7.341       7.338       7.333       7.325       7.319    
        7.329       7.342       7.352       7.360       7.371       7.399       7.430       7.460       7.486       7.500    

 HEAD WILL BE SAVED ON UNIT   51 AT END OF TIME STEP  100, STRESS PERIOD    3

 DRAWDOWN WILL BE SAVED ON UNIT   52 AT END OF TIME STEP  100, STRESS PERIOD    3
1
  VOLUMETRIC BUDGET FOR ENTIRE MODEL AT END OF TIME STEP  100, STRESS PERIOD   3
  ------------------------------------------------------------------------------

     CUMULATIVE VOLUMES      L**3       RATES FOR THIS TIME STEP      L**3/T
     ------------------                 ------------------------

           IN:                                      IN:
           ---                                      ---
             STORAGE =       15287.7812               STORAGE =           5.4040
       CONSTANT HEAD =           0.0000         CONSTANT HEAD =           0.0000
               WELLS =           0.0000                 WELLS =           0.0000
       RIVER LEAKAGE =     1063699.0000         RIVER LEAKAGE =        1852.4332
            RECHARGE =       96899.1250              RECHARGE =         364.9565

            TOTAL IN =     1175885.8750              TOTAL IN =        2222.7937

          OUT:                                     OUT:
          ----                                     ----
             STORAGE =     1131425.7500               STORAGE =        2043.9755
       CONSTANT HEAD =           0.0000         CONSTANT HEAD =           0.0000
               WELLS =       43553.5469                 WELLS =         179.3290
       RIVER LEAKAGE =        1080.1012         RIVER LEAKAGE =           0.0000
            RECHARGE =           0.0000              RECHARGE =           0.0000

           TOTAL OUT =     1176059.3750             TOTAL OUT =        2223.3044

            IN - OUT =        -173.5000              IN - OUT =          -0.5107

 PERCENT DISCREPANCY =          -0.01     PERCENT DISCREPANCY =          -0.02






         TIME SUMMARY AT END OF TIME STEP  100 IN STRESS PERIOD    3
                    SECONDS     MINUTES      HOURS       DAYS        YEARS
                    -----------------------------------------------------------
   TIME STEP LENGTH  86400.      1440.0      24.000      1.0000     2.73785E-03
 STRESS PERIOD TIME 8.64000E+06 1.44000E+05  2400.0      100.00     0.27379    
         TOTAL TIME 1.73664E+07 2.89440E+05  4824.0      201.00     0.55031    
1

 Run end date and time (yyyy/mm/dd hh:mm:ss): 2014/12/01 22:57:43
 Elapsed run time:  0.419 Seconds

